
 *******************************************************************************

         NASA-GLENN CHEMICAL EQUILIBRIUM PROGRAM CEA2, FEBRUARY 5, 2004
                   BY  BONNIE MCBRIDE AND SANFORD GORDON
      REFS: NASA RP-1311, PART I, 1994 AND NASA RP-1311, PART II, 1996

 *******************************************************************************



  
 ### CEA analysis performed on Thu 30-Oct-2025 02:00:41
  
 # Problem Type: "Rocket" (Infinite Area Combustor)
  
 prob case = problem1_______7015 ro frozen
  
 # Pressure (3 values):
 p,atm= 1, 3, 5
 # Chamber/Exit Pressure Ratio (1 value):
 pi/p= 1
  
 # Equivalence based on Fuel/Oxid. wt ratio (Eq 9.19*) (15 values):
 phi = 0.4, 0.7, 1, 1.3, 1.6, 1.9, 2.2, 2.5, 2.8, 3.1, 3.4, 3.7, 4, 4.3, 4.6
  
 # You selected the following fuels and oxidizers:
 reac
 fuel H2                wt%=100.0000  t,k= 300.000
 oxid Air               wt%=100.0000  t,k= 300.000
  
 # You selected these options for output:
 # long version of output
 # Proportions of any products will be expressed as Mass Fractions.
 output massf
 # Heat will be expressed as siunits
 output siunits
 # Transport properties calculated
 output transport
  
  
 # Input prepared by this script:/var/www/sites/cearun/cgi-bin/CEARUN/prepareInpu
 tFile.cgi
  
 ### IMPORTANT:  The following line is the end of your CEA input file!
 end

 OPTIONS: TP=F  HP=F  SP=F  TV=F  UV=F  SV=F  DETN=F  SHOCK=F  REFL=F  INCD=F
 RKT=T  FROZ=T  EQL=F  IONS=F  SIUNIT=T  DEBUGF=F  SHKDBG=F  DETDBG=F  TRNSPT=T

 TRACE= 0.00E+00  S/R= 0.000000E+00  H/R= 0.000000E+00  U/R= 0.000000E+00

 Pc,BAR =     1.013250     3.039750     5.066250

 Pc/P =     1.0000

 SUBSONIC AREA RATIOS =

 SUPERSONIC AREA RATIOS =

 NFZ=  1  Mdot/Ac= 0.000000E+00  Ac/At= 0.000000E+00

    REACTANT          WT.FRAC   (ENERGY/R),K   TEMP,K  DENSITY
        EXPLODED FORMULA
 F: H2               1.000000   0.641759E+01   300.00  0.0000
          H  2.00000
 O: Air              1.000000  -0.862210E+01   300.00  0.0000
          N  1.56168  O  0.41959  AR 0.00937  C  0.00032

  SPECIES BEING CONSIDERED IN THIS SYSTEM
 (CONDENSED PHASE MAY HAVE NAME LISTED SEVERAL TIMES)
  LAST thermo.inp UPDATE:    9/09/04

  g 3/98  *Ar              g 7/97  *C               tpis79  *CH            
  g 4/02  CH2              g 4/02  CH3              g11/00  CH2OH          
  g 7/00  CH3O             g 8/99  CH4              g 7/00  CH3OH          
  srd 01  CH3OOH           g 8/99  *CN              g12/99  CNN            
  tpis79  *CO              g 9/99  *CO2             tpis91  COOH           
  tpis91  *C2              g 6/01  C2H              g 1/91  C2H2,acetylene 
  g 5/01  C2H2,vinylidene  g 4/02  CH2CO,ketene     g 3/02  O(CH)2O        
  srd 01  HO(CO)2OH        g 7/01  C2H3,vinyl       g 9/00  CH3CN          
  g 6/96  CH3CO,acetyl     g 1/00  C2H4             g 8/88  C2H4O,ethylen-o
  g 8/88  CH3CHO,ethanal   g 6/00  CH3COOH          srd 01  OHCH2COOH      
  g 7/00  C2H5             g 7/00  C2H6             g 8/88  CH3N2CH3       
  g 8/88  C2H5OH           g 7/00  CH3OCH3          srd 01  CH3O2CH3       
  g 7/00  CCN              tpis91  CNC              srd 01  OCCN           
  tpis79  C2N2             g 8/00  C2O              tpis79  *C3            
  n 4/98  C3H3,1-propynl   n 4/98  C3H3,2-propynl   g 2/00  C3H4,allene    
  g 1/00  C3H4,propyne     g 5/90  C3H4,cyclo-      g 3/01  C3H5,allyl     
  g 2/00  C3H6,propylene   g 1/00  C3H6,cyclo-      g 6/01  C3H6O,propylox 
  g 6/97  C3H6O,acetone    g 1/02  C3H6O,propanal   g 7/01  C3H7,n-propyl  
  g 9/85  C3H7,i-propyl    g 2/00  C3H8             g 2/00  C3H8O,1propanol
  g 2/00  C3H8O,2propanol  srd 01  CNCOCN           g 7/88  C3O2           
  g tpis  *C4              g 7/01  C4H2,butadiyne   g 8/00  C4H4,1,3-cyclo-
  n10/92  C4H6,butadiene   n10/93  C4H6,1butyne     n10/93  C4H6,2butyne   
  g 8/00  C4H6,cyclo-      n 4/88  C4H8,1-butene    n 4/88  C4H8,cis2-buten
  n 4/88  C4H8,tr2-butene  n 4/88  C4H8,isobutene   g 8/00  C4H8,cyclo-    
  g10/00  (CH3COOH)2       n10/84  C4H9,n-butyl     n10/84  C4H9,i-butyl   
  g 1/93  C4H9,s-butyl     g 1/93  C4H9,t-butyl     g12/00  C4H10,n-butane 
  g 8/00  C4H10,isobutane  g 6/01  C4N2             g 8/00  *C5            
  g 5/90  C5H6,1,3cyclo-   g 1/93  C5H8,cyclo-      n 4/87  C5H10,1-pentene
  g 2/01  C5H10,cyclo-     n10/84  C5H11,pentyl     g 1/93  C5H11,t-pentyl 
  n10/85  C5H12,n-pentane  n10/85  C5H12,i-pentane  n10/85  CH3C(CH3)2CH3  
  g 2/93  C6H2             g11/00  C6H5,phenyl      g 8/00  C6H5O,phenoxy  
  g 8/00  C6H6             g 8/00  C6H5OH,phenol    g 1/93  C6H10,cyclo-   
  n 4/87  C6H12,1-hexene   g 6/90  C6H12,cyclo-     n10/83  C6H13,n-hexyl  
  g 6/01  C6H14,n-hexane   g 7/01  C7H7,benzyl      g 1/93  C7H8           
  g12/00  C7H8O,cresol-mx  n 4/87  C7H14,1-heptene  n10/83  C7H15,n-heptyl 
  n10/85  C7H16,n-heptane  n10/85  C7H16,2-methylh  n 4/89  C8H8,styrene   
  n10/86  C8H10,ethylbenz  n 4/87  C8H16,1-octene   n10/83  C8H17,n-octyl  
  n 4/85  C8H18,n-octane   n 4/85  C8H18,isooctane  n10/83  C9H19,n-nonyl  
  g 3/01  C10H8,naphthale  n10/83  C10H21,n-decyl   G12/12  C11H21         
  g 8/00  C12H9,o-bipheny  g 8/00  C12H10,biphenyl  g 6/97  *H             
  g 6/01  HCN              g 1/01  HCO              tpis89  HCCN           
  g 6/01  HCCO             g 6/01  HNC              g 7/00  HNCO           
  g10/01  HNO              tpis89  HNO2             g 5/99  HNO3           
  g 4/02  HO2              tpis78  *H2              g 5/01  HCHO,formaldehy
  g 6/01  HCOOH            g 8/89  H2O              g 6/99  H2O2           
  g 6/01  (HCOOH)2         g 5/97  *N               g 6/01  NCO            
  g 4/99  *NH              g 3/01  NH2              tpis89  NH3            
  tpis89  NH2OH            tpis89  *NO              g 4/99  NO2            
  j12/64  NO3              tpis78  *N2              J12/64  N2O            
  g 6/01  NCN              g 5/99  N2H2             tpis89  NH2NO2         
  g 4/99  N2H4             g 4/99  N2O3             tpis89  N2O4           
  g 4/99  N2O5             tpis89  N3               g 4/99  N3H            
  g 5/97  *O               g 4/02  *OH              tpis89  *O2            
  g 8/01  O3               g 12/0  THDCPD,endo      g 12/0  THDCPD,exo     
  g11/99  N2H4(L)          n 4/83  C(gr)            n 4/83  C(gr)          
  n 4/83  C(gr)            n12/84  CH3OH(L)         n12/84  C2H5OH(L)      
  n 4/85  C6H14(L),n-hexa  n12/88  C6H5NH2(L)       n10/86  C6H6(L)        
  g11/99  H2O(cr)          g 8/01  H2O(L)           g 8/01  H2O(L)         

 SPECIES WITH TRANSPORT PROPERTIES

        PURE SPECIES

  Ar                C                 CH4               CH3OH           
  CO                CO2             
  C2H2,acetylene    C2H4              C2H6              C2H5OH          
  C2N2              H               
  HCN               H2                H2O               N               
  NH3               NO              
  NO2               N2                N2O               N2O4            
  O                 OH              
  O2              

     BINARY INTERACTIONS

     C               O               
     CH4             O2              
     CO              CO2             
     CO              N2              
     CO              O2              
     CO2             H2              
     CO2             H2O             
     CO2             N2              
     CO2             O2              
     H               H2              
     H               N               
     H               N2              
     H               O               
     H2              H2O             
     H2              N2              
     H2              O2              
     H2O             N2              
     H2O             O2              
     N               NO              
     N               N2              
     N               O               
     N               O2              
     NO              O               
     N2              O               
     N2              O2              
     O               O2              


 O/F =  85.740564

                       EFFECTIVE FUEL     EFFECTIVE OXIDANT        MIXTURE
 ENTHALPY                  h(2)/R              h(1)/R               h0/R
 (KG-MOL)(K)/KG        0.31835169E+01     -0.29767190E+00     -0.25753856E+00

 KG-FORM.WT./KG             bi(2)               bi(1)               b0i
  *H                   0.99212255E+00      0.00000000E+00      0.11437815E-01
  *N                   0.00000000E+00      0.53915890E-01      0.53294313E-01
  *O                   0.00000000E+00      0.14486046E-01      0.14319042E-01
  *Ar                  0.00000000E+00      0.32331996E-03      0.31959252E-03
  *C                   0.00000000E+00      0.11013248E-04      0.10886280E-04

 POINT ITN      T            H           N           O           AR
                    C 





           THEORETICAL ROCKET PERFORMANCE ASSUMING FROZEN COMPOSITION

 Pin =    14.7 PSIA
 CASE = problem1_______

             REACTANT                    WT FRACTION      ENERGY      TEMP
                                          (SEE NOTE)     KJ/KG-MOL      K  
 FUEL        H2                           1.0000000        53.359    300.000
 OXIDANT     Air                          1.0000000       -71.689    300.000

 O/F=   85.74056  %FUEL=  1.152863  R,EQ.RATIO= 0.400912  PHI,EQ.RATIO= 0.400000

                 CHAMBER   THROAT     EXIT
 Pinf/P            1.0000   1.8357   1.0000
 P, BAR            1.0132  0.55197   1.0132
 T, K             1426.97  1240.63  1426.97
 RHO, KG/CU M    2.3090-1 1.4468-1 2.3090-1
 H, KJ/KG         -2.1413  -250.96  -2.1413
 U, KJ/KG         -440.97  -632.48  -440.97
 G, KJ/KG        -13174.4 -11703.2 -13174.4
 S, KJ/(KG)(K)     9.2309   9.2309   9.2309

 M, (1/n)          27.037   27.037   27.037
 Cp, KJ/(KG)(K)    1.3516   1.3180   1.3516
 GAMMAs            1.2945   1.3043   1.2945
 SON VEL,M/SEC      753.7    705.4    753.7
 MACH NUMBER        0.000    1.000    0.000

 TRANSPORT PROPERTIES (GASES ONLY)
   CONDUCTIVITY IN UNITS OF MILLIWATTS/(CM)(K)

 VISC,MILLIPOISE  0.55957  0.50941  0.55957

  WITH FROZEN REACTIONS

 Cp, KJ/(KG)(K)    1.3516   1.3180   1.3516
 CONDUCTIVITY      1.0163   0.8953   1.0163
 PRANDTL NUMBER    0.7442   0.7498   0.7442

 PERFORMANCE PARAMETERS

 Ae/At                      1.0000  1859.30
 CSTAR, M/SEC                992.8    992.8
 CF                         0.7105   0.0002
 Ivac, M/SEC                1246.31845933.5
 Isp, M/SEC                  705.4      0.2

 MASS FRACTIONS

 *Ar             0.01277   *CO2            0.00048   H2O             0.10301
 *NO             0.00066   NO2             0.00001   *N2             0.74617
 *OH             0.00003   *O2             0.13688

  * THERMODYNAMIC PROPERTIES FITTED TO 20000.K

    PRODUCTS WHICH WERE CONSIDERED BUT WHOSE MASS FRACTIONS
    WERE LESS THAN 5.000000E-06 FOR ALL ASSIGNED CONDITIONS



 NOTE. WEIGHT FRACTION OF FUEL IN TOTAL FUELS AND OF OXIDANT IN TOTAL OXIDANTS






 POINT ITN      T            H           N           O           AR
                    C 





           THEORETICAL ROCKET PERFORMANCE ASSUMING FROZEN COMPOSITION

 Pin =    44.1 PSIA
 CASE = problem1_______

             REACTANT                    WT FRACTION      ENERGY      TEMP
                                          (SEE NOTE)     KJ/KG-MOL      K  
 FUEL        H2                           1.0000000        53.359    300.000
 OXIDANT     Air                          1.0000000       -71.689    300.000

 O/F=   85.74056  %FUEL=  1.152863  R,EQ.RATIO= 0.400912  PHI,EQ.RATIO= 0.400000

                 CHAMBER   THROAT     EXIT
 Pinf/P            1.0000   1.8357   1.0000
 P, BAR            3.0397   1.6559   3.0397
 T, K             1427.03  1240.68  1427.03
 RHO, KG/CU M    6.9268-1 4.3401-1 6.9268-1
 H, KJ/KG         -2.1413  -250.97  -2.1413
 U, KJ/KG         -440.98  -632.50  -440.98
 G, KJ/KG        -12692.8 -11284.5 -12692.8
 S, KJ/(KG)(K)     8.8931   8.8931   8.8931

 M, (1/n)          27.037   27.037   27.037
 Cp, KJ/(KG)(K)    1.3516   1.3180   1.3516
 GAMMAs            1.2945   1.3043   1.2945
 SON VEL,M/SEC      753.7    705.4    753.7
 MACH NUMBER        0.000    1.000    0.000

 TRANSPORT PROPERTIES (GASES ONLY)
   CONDUCTIVITY IN UNITS OF MILLIWATTS/(CM)(K)

 VISC,MILLIPOISE  0.55959  0.50942  0.55959

  WITH FROZEN REACTIONS

 Cp, KJ/(KG)(K)    1.3516   1.3180   1.3516
 CONDUCTIVITY      1.0164   0.8954   1.0164
 PRANDTL NUMBER    0.7442   0.7498   0.7442

 PERFORMANCE PARAMETERS

 Ae/At                      1.0000  2828.97
 CSTAR, M/SEC                992.8    992.8
 CF                         0.7105   0.0002
 Ivac, M/SEC                1246.32808676.2
 Isp, M/SEC                  705.4      0.2

 MASS FRACTIONS

 *Ar             0.01277   *CO2            0.00048   H2O             0.10301
 *NO             0.00066   NO2             0.00001   *N2             0.74617
 *OH             0.00002   *O2             0.13688

  * THERMODYNAMIC PROPERTIES FITTED TO 20000.K

    PRODUCTS WHICH WERE CONSIDERED BUT WHOSE MASS FRACTIONS
    WERE LESS THAN 5.000000E-06 FOR ALL ASSIGNED CONDITIONS



 NOTE. WEIGHT FRACTION OF FUEL IN TOTAL FUELS AND OF OXIDANT IN TOTAL OXIDANTS






 POINT ITN      T            H           N           O           AR
                    C 





           THEORETICAL ROCKET PERFORMANCE ASSUMING FROZEN COMPOSITION

 Pin =    73.5 PSIA
 CASE = problem1_______

             REACTANT                    WT FRACTION      ENERGY      TEMP
                                          (SEE NOTE)     KJ/KG-MOL      K  
 FUEL        H2                           1.0000000        53.359    300.000
 OXIDANT     Air                          1.0000000       -71.689    300.000

 O/F=   85.74056  %FUEL=  1.152863  R,EQ.RATIO= 0.400912  PHI,EQ.RATIO= 0.400000

                 CHAMBER   THROAT     EXIT
 Pinf/P            1.0000   1.8357   1.0000
 P, BAR            5.0663   2.7598   5.0663
 T, K             1427.05  1240.70  1427.05
 RHO, KG/CU M    1.1544 0 7.2334-1 1.1544 0
 H, KJ/KG         -2.1398  -250.97  -2.1398
 U, KJ/KG         -440.99  -632.51  -440.99
 G, KJ/KG        -12468.8 -11089.7 -12468.8
 S, KJ/(KG)(K)     8.7360   8.7360   8.7360

 M, (1/n)          27.037   27.037   27.037
 Cp, KJ/(KG)(K)    1.3516   1.3180   1.3516
 GAMMAs            1.2945   1.3043   1.2945
 SON VEL,M/SEC      753.7    705.4    753.7
 MACH NUMBER        0.000    1.000    0.000

 TRANSPORT PROPERTIES (GASES ONLY)
   CONDUCTIVITY IN UNITS OF MILLIWATTS/(CM)(K)

 VISC,MILLIPOISE  0.55959  0.50943  0.55959

  WITH FROZEN REACTIONS

 Cp, KJ/(KG)(K)    1.3516   1.3180   1.3516
 CONDUCTIVITY      1.0164   0.8954   1.0164
 PRANDTL NUMBER    0.7442   0.7498   0.7442

 PERFORMANCE PARAMETERS

 Ae/At                      1.0000  3438.90
 CSTAR, M/SEC                992.8    992.8
 CF                         0.7105   0.0001
 Ivac, M/SEC                1246.33414259.3
 Isp, M/SEC                  705.4      0.1

 MASS FRACTIONS

 *Ar             0.01277   *CO2            0.00048   H2O             0.10302
 *NO             0.00066   NO2             0.00001   *N2             0.74616
 *OH             0.00002   *O2             0.13688

  * THERMODYNAMIC PROPERTIES FITTED TO 20000.K

    PRODUCTS WHICH WERE CONSIDERED BUT WHOSE MASS FRACTIONS
    WERE LESS THAN 5.000000E-06 FOR ALL ASSIGNED CONDITIONS



 NOTE. WEIGHT FRACTION OF FUEL IN TOTAL FUELS AND OF OXIDANT IN TOTAL OXIDANTS






 O/F =  48.994608

                       EFFECTIVE FUEL     EFFECTIVE OXIDANT        MIXTURE
 ENTHALPY                  h(2)/R              h(1)/R               h0/R
 (KG-MOL)(K)/KG        0.31835169E+01     -0.29767190E+00     -0.22804062E+00

 KG-FORM.WT./KG             bi(2)               bi(1)               b0i
  *H                   0.99212255E+00      0.00000000E+00      0.19844591E-01
  *N                   0.00000000E+00      0.53915890E-01      0.52837456E-01
  *O                   0.00000000E+00      0.14486046E-01      0.14196294E-01
  *Ar                  0.00000000E+00      0.32331996E-03      0.31685286E-03
  *C                   0.00000000E+00      0.11013248E-04      0.10792959E-04

 POINT ITN      T            H           N           O           AR
                    C 





           THEORETICAL ROCKET PERFORMANCE ASSUMING FROZEN COMPOSITION

 Pin =    14.7 PSIA
 CASE = problem1_______

             REACTANT                    WT FRACTION      ENERGY      TEMP
                                          (SEE NOTE)     KJ/KG-MOL      K  
 FUEL        H2                           1.0000000        53.359    300.000
 OXIDANT     Air                          1.0000000       -71.689    300.000

 O/F=   48.99461  %FUEL=  2.000216  R,EQ.RATIO= 0.700456  PHI,EQ.RATIO= 0.700000

                 CHAMBER   THROAT     EXIT
 Pinf/P            1.0000   1.8143   1.0000
 P, BAR            1.0132  0.55849   1.0132
 T, K             2012.93  1776.22  2012.93
 RHO, KG/CU M    1.5590-1 9.7383-2 1.5590-1
 H, KJ/KG         -1.8960  -365.88  -1.8961
 U, KJ/KG         -651.82  -939.38  -651.82
 G, KJ/KG        -20557.9 -18504.6 -20557.9
 S, KJ/(KG)(K)    10.2120  10.2120  10.2120

 M, (1/n)          25.752   25.752   25.752
 Cp, KJ/(KG)(K)    1.5529   1.5214   1.5529
 GAMMAs            1.2625   1.2694   1.2625
 SON VEL,M/SEC      905.8    853.2    905.8
 MACH NUMBER        0.000    1.000    0.000

 TRANSPORT PROPERTIES (GASES ONLY)
   CONDUCTIVITY IN UNITS OF MILLIWATTS/(CM)(K)

 VISC,MILLIPOISE  0.71000  0.65194  0.71000

  WITH FROZEN REACTIONS

 Cp, KJ/(KG)(K)    1.5529   1.5214   1.5529
 CONDUCTIVITY      1.5324   1.3622   1.5324
 PRANDTL NUMBER    0.7195   0.7281   0.7195

 PERFORMANCE PARAMETERS

 Ae/At                      1.0000  4243.02
 CSTAR, M/SEC               1219.5   1219.5
 CF                         0.6997   0.0001
 Ivac, M/SEC                1525.45174266.7
 Isp, M/SEC                  853.2      0.1

 MASS FRACTIONS

 *Ar             0.01266   *CO2            0.00047   *H2             0.00003
 H2O             0.17753   *NO             0.00428   NO2             0.00001
 *N2             0.73808   *O              0.00010   *OH             0.00183
 *O2             0.06501

  * THERMODYNAMIC PROPERTIES FITTED TO 20000.K

    PRODUCTS WHICH WERE CONSIDERED BUT WHOSE MASS FRACTIONS
    WERE LESS THAN 5.000000E-06 FOR ALL ASSIGNED CONDITIONS



 NOTE. WEIGHT FRACTION OF FUEL IN TOTAL FUELS AND OF OXIDANT IN TOTAL OXIDANTS






 POINT ITN      T            H           N           O           AR
                    C 





           THEORETICAL ROCKET PERFORMANCE ASSUMING FROZEN COMPOSITION

 Pin =    44.1 PSIA
 CASE = problem1_______

             REACTANT                    WT FRACTION      ENERGY      TEMP
                                          (SEE NOTE)     KJ/KG-MOL      K  
 FUEL        H2                           1.0000000        53.359    300.000
 OXIDANT     Air                          1.0000000       -71.689    300.000

 O/F=   48.99461  %FUEL=  2.000216  R,EQ.RATIO= 0.700456  PHI,EQ.RATIO= 0.700000

                 CHAMBER   THROAT     EXIT
 Pinf/P            1.0000   1.8141   1.0000
 P, BAR            3.0397   1.6756   3.0397
 T, K             2016.82  1779.81  2016.82
 RHO, KG/CU M    4.6694-1 2.9166-1 4.6694-1
 H, KJ/KG         -1.8960  -366.46  -1.8961
 U, KJ/KG         -652.90  -940.95  -652.90
 G, KJ/KG        -19882.3 -17910.6 -19882.3
 S, KJ/(KG)(K)     9.8573   9.8573   9.8573

 M, (1/n)          25.759   25.759   25.759
 Cp, KJ/(KG)(K)    1.5534   1.5219   1.5534
 GAMMAs            1.2623   1.2692   1.2623
 SON VEL,M/SEC      906.5    853.9    906.5
 MACH NUMBER        0.000    1.000    0.000

 TRANSPORT PROPERTIES (GASES ONLY)
   CONDUCTIVITY IN UNITS OF MILLIWATTS/(CM)(K)

 VISC,MILLIPOISE  0.71094  0.65284  0.71094

  WITH FROZEN REACTIONS

 Cp, KJ/(KG)(K)    1.5534   1.5219   1.5534
 CONDUCTIVITY      1.5350   1.3646   1.5350
 PRANDTL NUMBER    0.7194   0.7281   0.7194

 PERFORMANCE PARAMETERS

 Ae/At                      1.0000  5543.16
 CSTAR, M/SEC               1220.6   1220.6
 CF                         0.6996   0.0001
 Ivac, M/SEC                1526.76765737.8
 Isp, M/SEC                  853.9      0.1

 MASS FRACTIONS

 *Ar             0.01266   *CO2            0.00047   *H2             0.00002
 H2O             0.17785   *NO             0.00433   NO2             0.00001
 *N2             0.73805   *O              0.00006   *OH             0.00142
 *O2             0.06512

  * THERMODYNAMIC PROPERTIES FITTED TO 20000.K

    PRODUCTS WHICH WERE CONSIDERED BUT WHOSE MASS FRACTIONS
    WERE LESS THAN 5.000000E-06 FOR ALL ASSIGNED CONDITIONS



 NOTE. WEIGHT FRACTION OF FUEL IN TOTAL FUELS AND OF OXIDANT IN TOTAL OXIDANTS






 POINT ITN      T            H           N           O           AR
                    C 





           THEORETICAL ROCKET PERFORMANCE ASSUMING FROZEN COMPOSITION

 Pin =    73.5 PSIA
 CASE = problem1_______

             REACTANT                    WT FRACTION      ENERGY      TEMP
                                          (SEE NOTE)     KJ/KG-MOL      K  
 FUEL        H2                           1.0000000        53.359    300.000
 OXIDANT     Air                          1.0000000       -71.689    300.000

 O/F=   48.99461  %FUEL=  2.000216  R,EQ.RATIO= 0.700456  PHI,EQ.RATIO= 0.700000

                 CHAMBER   THROAT     EXIT
 Pinf/P            1.0000   1.8141   1.0000
 P, BAR            5.0663   2.7927   5.0663
 T, K             2018.22  1781.11  2018.22
 RHO, KG/CU M    7.7776-1 4.8581-1 7.7776-1
 H, KJ/KG         -1.8960  -366.66  -1.8960
 U, KJ/KG         -653.29  -941.52  -653.29
 G, KJ/KG        -19563.4 -17630.0 -19563.4
 S, KJ/(KG)(K)     9.6924   9.6924   9.6924

 M, (1/n)          25.761   25.761   25.761
 Cp, KJ/(KG)(K)    1.5535   1.5221   1.5535
 GAMMAs            1.2622   1.2691   1.2622
 SON VEL,M/SEC      906.8    854.1    906.8
 MACH NUMBER        0.000    1.000    0.000

 TRANSPORT PROPERTIES (GASES ONLY)
   CONDUCTIVITY IN UNITS OF MILLIWATTS/(CM)(K)

 VISC,MILLIPOISE  0.71128  0.65316  0.71128

  WITH FROZEN REACTIONS

 Cp, KJ/(KG)(K)    1.5535   1.5221   1.5535
 CONDUCTIVITY      1.5360   1.3655   1.5360
 PRANDTL NUMBER    0.7194   0.7281   0.7194

 PERFORMANCE PARAMETERS

 Ae/At                      1.0000  6296.90
 CSTAR, M/SEC               1220.9   1220.9
 CF                         0.6996   0.0001
 Ivac, M/SEC                1527.27688172.0
 Isp, M/SEC                  854.1      0.1

 MASS FRACTIONS

 *Ar             0.01266   *CO2            0.00047   *H2             0.00001
 H2O             0.17797   *NO             0.00435   NO2             0.00001
 *N2             0.73804   *O              0.00005   *OH             0.00125
 *O2             0.06517

  * THERMODYNAMIC PROPERTIES FITTED TO 20000.K

    PRODUCTS WHICH WERE CONSIDERED BUT WHOSE MASS FRACTIONS
    WERE LESS THAN 5.000000E-06 FOR ALL ASSIGNED CONDITIONS



 NOTE. WEIGHT FRACTION OF FUEL IN TOTAL FUELS AND OF OXIDANT IN TOTAL OXIDANTS






 O/F =  34.296226

                       EFFECTIVE FUEL     EFFECTIVE OXIDANT        MIXTURE
 ENTHALPY                  h(2)/R              h(1)/R               h0/R
 (KG-MOL)(K)/KG        0.31835169E+01     -0.29767190E+00     -0.19904411E+00

 KG-FORM.WT./KG             bi(2)               bi(1)               b0i
  *H                   0.99212255E+00      0.00000000E+00      0.28108460E-01
  *N                   0.00000000E+00      0.53915890E-01      0.52388364E-01
  *O                   0.00000000E+00      0.14486046E-01      0.14075632E-01
  *Ar                  0.00000000E+00      0.32331996E-03      0.31415977E-03
  *C                   0.00000000E+00      0.11013248E-04      0.10701224E-04

 POINT ITN      T            H           N           O           AR
                    C 





           THEORETICAL ROCKET PERFORMANCE ASSUMING FROZEN COMPOSITION

 Pin =    14.7 PSIA
 CASE = problem1_______

             REACTANT                    WT FRACTION      ENERGY      TEMP
                                          (SEE NOTE)     KJ/KG-MOL      K  
 FUEL        H2                           1.0000000        53.359    300.000
 OXIDANT     Air                          1.0000000       -71.689    300.000

 O/F=   34.29623  %FUEL=  2.833164  R,EQ.RATIO= 1.000000  PHI,EQ.RATIO= 1.000000

                 CHAMBER   THROAT     EXIT
 Pinf/P            1.0000   1.8038   1.0000
 P, BAR            1.0132  0.56174   1.0132
 T, K             2379.56  2115.29  2379.56
 RHO, KG/CU M    1.2483-1 7.7852-2 1.2483-1
 H, KJ/KG         -1.6550  -453.43  -1.6550
 U, KJ/KG         -813.35 -1174.98  -813.35
 G, KJ/KG        -26245.5 -23782.7 -26245.5
 S, KJ/(KG)(K)    11.0289  11.0289  11.0289

 M, (1/n)          24.375   24.375   24.375
 Cp, KJ/(KG)(K)    1.7244   1.6936   1.7244
 GAMMAs            1.2466   1.2522   1.2466
 SON VEL,M/SEC     1005.9    950.5   1005.9
 MACH NUMBER        0.000    1.000      NaN

 TRANSPORT PROPERTIES (GASES ONLY)
   CONDUCTIVITY IN UNITS OF MILLIWATTS/(CM)(K)

 VISC,MILLIPOISE  0.79934  0.73698  0.79934

  WITH FROZEN REACTIONS

 Cp, KJ/(KG)(K)    1.7244   1.6936   1.7244
 CONDUCTIVITY      1.9719   1.7657   1.9719
 PRANDTL NUMBER    0.6990   0.7069   0.6990

 PERFORMANCE PARAMETERS

 Ae/At                     1.00000      NaN
 CSTAR, M/SEC               1369.2   1369.2
 CF                         0.6942      NaN
 Ivac, M/SEC                1709.6      NaN
 Isp, M/SEC                  950.5      NaN

 MASS FRACTIONS

 *Ar             0.01255   *CO             0.00006   *CO2            0.00037
 *H              0.00007   *H2             0.00125   H2O             0.23861
 *NO             0.00304   *N2             0.73237   *O              0.00035
 *OH             0.00521   *O2             0.00612

  * THERMODYNAMIC PROPERTIES FITTED TO 20000.K

    PRODUCTS WHICH WERE CONSIDERED BUT WHOSE MASS FRACTIONS
    WERE LESS THAN 5.000000E-06 FOR ALL ASSIGNED CONDITIONS



 NOTE. WEIGHT FRACTION OF FUEL IN TOTAL FUELS AND OF OXIDANT IN TOTAL OXIDANTS






 POINT ITN      T            H           N           O           AR
                    C 





           THEORETICAL ROCKET PERFORMANCE ASSUMING FROZEN COMPOSITION

 Pin =    44.1 PSIA
 CASE = problem1_______

             REACTANT                    WT FRACTION      ENERGY      TEMP
                                          (SEE NOTE)     KJ/KG-MOL      K  
 FUEL        H2                           1.0000000        53.359    300.000
 OXIDANT     Air                          1.0000000       -71.689    300.000

 O/F=   34.29623  %FUEL=  2.833164  R,EQ.RATIO= 1.000000  PHI,EQ.RATIO= 1.000000

                 CHAMBER   THROAT     EXIT
 Pinf/P            1.0000   1.8029   1.0000
 P, BAR            3.0397   1.6861   3.0397
 T, K             2411.61  2145.14  2411.61
 RHO, KG/CU M    3.7047-1 2.3102-1 3.7047-1
 H, KJ/KG         -1.6550  -458.08  -1.6550
 U, KJ/KG         -822.17 -1187.94  -822.17
 G, KJ/KG        -25696.4 -23313.8 -25696.4
 S, KJ/(KG)(K)    10.6546  10.6546  10.6546

 M, (1/n)          24.438   24.438   24.438
 Cp, KJ/(KG)(K)    1.7275   1.6972   1.7275
 GAMMAs            1.2452   1.2507   1.2452
 SON VEL,M/SEC     1010.8    955.4   1010.8
 MACH NUMBER        0.000    1.000    0.000

 TRANSPORT PROPERTIES (GASES ONLY)
   CONDUCTIVITY IN UNITS OF MILLIWATTS/(CM)(K)

 VISC,MILLIPOISE  0.80706  0.74439  0.80706

  WITH FROZEN REACTIONS

 Cp, KJ/(KG)(K)    1.7275   1.6972   1.7275
 CONDUCTIVITY      1.9913   1.7843   1.9913
 PRANDTL NUMBER    0.7001   0.7080   0.7001

 PERFORMANCE PARAMETERS

 Ae/At                      1.0000 6124839.
 CSTAR, M/SEC               1377.2   1377.2
 CF                         0.6938   0.0000
 Ivac, M/SEC                1719.3*********
 Isp, M/SEC                  955.4      0.0

 MASS FRACTIONS

 *Ar             0.01255   *CO             0.00005   *CO2            0.00039
 *H              0.00004   *H2             0.00099   H2O             0.24172
 *NO             0.00281   *N2             0.73248   *O              0.00021
 *OH             0.00414   *O2             0.00462

  * THERMODYNAMIC PROPERTIES FITTED TO 20000.K

    PRODUCTS WHICH WERE CONSIDERED BUT WHOSE MASS FRACTIONS
    WERE LESS THAN 5.000000E-06 FOR ALL ASSIGNED CONDITIONS



 NOTE. WEIGHT FRACTION OF FUEL IN TOTAL FUELS AND OF OXIDANT IN TOTAL OXIDANTS






 POINT ITN      T            H           N           O           AR
                    C 





           THEORETICAL ROCKET PERFORMANCE ASSUMING FROZEN COMPOSITION

 Pin =    73.5 PSIA
 CASE = problem1_______

             REACTANT                    WT FRACTION      ENERGY      TEMP
                                          (SEE NOTE)     KJ/KG-MOL      K  
 FUEL        H2                           1.0000000        53.359    300.000
 OXIDANT     Air                          1.0000000       -71.689    300.000

 O/F=   34.29623  %FUEL=  2.833164  R,EQ.RATIO= 1.000000  PHI,EQ.RATIO= 1.000000

                 CHAMBER   THROAT     EXIT
 Pinf/P            1.0000   1.8025   1.0000
 P, BAR            5.0663   2.8107   5.0663
 T, K             2424.52  2157.17  2424.52
 RHO, KG/CU M    6.1479-1 3.8335-1 6.1479-1
 H, KJ/KG         -1.6550  -459.95  -1.6550
 U, KJ/KG         -825.71 -1193.14  -825.71
 G, KJ/KG        -25412.8 -23069.1 -25412.8
 S, KJ/(KG)(K)    10.4809  10.4809  10.4809

 M, (1/n)          24.463   24.463   24.463
 Cp, KJ/(KG)(K)    1.7288   1.6986   1.7288
 GAMMAs            1.2447   1.2501   1.2447
 SON VEL,M/SEC     1012.8    957.4   1012.8
 MACH NUMBER        0.000    1.000      NaN

 TRANSPORT PROPERTIES (GASES ONLY)
   CONDUCTIVITY IN UNITS OF MILLIWATTS/(CM)(K)

 VISC,MILLIPOISE  0.81017  0.74738  0.81017

  WITH FROZEN REACTIONS

 Cp, KJ/(KG)(K)    1.7288   1.6986   1.7288
 CONDUCTIVITY      1.9992   1.7919   1.9992
 PRANDTL NUMBER    0.7006   0.7085   0.7006

 PERFORMANCE PARAMETERS

 Ae/At                     1.00000      NaN
 CSTAR, M/SEC               1380.4   1380.4
 CF                         0.6936      NaN
 Ivac, M/SEC                1723.2      NaN
 Isp, M/SEC                  957.4      NaN

 MASS FRACTIONS

 *Ar             0.01255   *CO             0.00005   *CO2            0.00039
 *H              0.00003   *H2             0.00089   H2O             0.24301
 *NO             0.00268   *N2             0.73254   *O              0.00016
 *OH             0.00368   *O2             0.00402

  * THERMODYNAMIC PROPERTIES FITTED TO 20000.K

    PRODUCTS WHICH WERE CONSIDERED BUT WHOSE MASS FRACTIONS
    WERE LESS THAN 5.000000E-06 FOR ALL ASSIGNED CONDITIONS



 NOTE. WEIGHT FRACTION OF FUEL IN TOTAL FUELS AND OF OXIDANT IN TOTAL OXIDANTS






 O/F =  26.381712

                       EFFECTIVE FUEL     EFFECTIVE OXIDANT        MIXTURE
 ENTHALPY                  h(2)/R              h(1)/R               h0/R
 (KG-MOL)(K)/KG        0.31835169E+01     -0.29767190E+00     -0.17053636E+00

 KG-FORM.WT./KG             bi(2)               bi(1)               b0i
  *H                   0.99212255E+00      0.00000000E+00      0.36233036E-01
  *N                   0.00000000E+00      0.53915890E-01      0.51946842E-01
  *O                   0.00000000E+00      0.14486046E-01      0.13957005E-01
  *Ar                  0.00000000E+00      0.32331996E-03      0.31151208E-03
  *C                   0.00000000E+00      0.11013248E-04      0.10611036E-04

 POINT ITN      T            H           N           O           AR
                    C 





           THEORETICAL ROCKET PERFORMANCE ASSUMING FROZEN COMPOSITION

 Pin =    14.7 PSIA
 CASE = problem1_______

             REACTANT                    WT FRACTION      ENERGY      TEMP
                                          (SEE NOTE)     KJ/KG-MOL      K  
 FUEL        H2                           1.0000000        53.359    300.000
 OXIDANT     Air                          1.0000000       -71.689    300.000

 O/F=   26.38171  %FUEL=  3.652073  R,EQ.RATIO= 1.299544  PHI,EQ.RATIO= 1.300000

                 CHAMBER   THROAT     EXIT
 Pinf/P            1.0000   1.8062   1.0000
 P, BAR            1.0132  0.56099   1.0132
 T, K             2326.02  2064.32  2326.02
 RHO, KG/CU M    1.1762-1 7.3377-2 1.1762-1
 H, KJ/KG         -1.4179  -481.60  -1.4179
 U, KJ/KG         -862.88 -1246.13  -862.88
 G, KJ/KG        -27306.4 -24714.4 -27306.4
 S, KJ/(KG)(K)    11.7389  11.7389  11.7389

 M, (1/n)          22.450   22.450   22.450
 Cp, KJ/(KG)(K)    1.8519   1.8164   1.8519
 GAMMAs            1.2500   1.2561   1.2500
 SON VEL,M/SEC     1037.7    980.0   1037.7
 MACH NUMBER        0.000    1.000      NaN

 TRANSPORT PROPERTIES (GASES ONLY)
   CONDUCTIVITY IN UNITS OF MILLIWATTS/(CM)(K)

 VISC,MILLIPOISE  0.78170  0.72009  0.78170

  WITH FROZEN REACTIONS

 Cp, KJ/(KG)(K)    1.8519   1.8164   1.8519
 CONDUCTIVITY      2.1805   1.9522   2.1805
 PRANDTL NUMBER    0.6639   0.6700   0.6639

 PERFORMANCE PARAMETERS

 Ae/At                      1.0000      NaN
 CSTAR, M/SEC               1409.1   1409.1
 CF                         0.6955      NaN
 Ivac, M/SEC                1760.1      NaN
 Isp, M/SEC                  980.0      NaN

 MASS FRACTIONS

 *Ar             0.01244   *CO             0.00019   *CO2            0.00017
 *H              0.00015   *H2             0.00839   H2O             0.24918
 *NO             0.00033   *N2             0.72745   *O              0.00003
 *OH             0.00157   *O2             0.00009

  * THERMODYNAMIC PROPERTIES FITTED TO 20000.K

    PRODUCTS WHICH WERE CONSIDERED BUT WHOSE MASS FRACTIONS
    WERE LESS THAN 5.000000E-06 FOR ALL ASSIGNED CONDITIONS



 NOTE. WEIGHT FRACTION OF FUEL IN TOTAL FUELS AND OF OXIDANT IN TOTAL OXIDANTS






 POINT ITN      T            H           N           O           AR
                    C 





           THEORETICAL ROCKET PERFORMANCE ASSUMING FROZEN COMPOSITION

 Pin =    44.1 PSIA
 CASE = problem1_______

             REACTANT                    WT FRACTION      ENERGY      TEMP
                                          (SEE NOTE)     KJ/KG-MOL      K  
 FUEL        H2                           1.0000000        53.359    300.000
 OXIDANT     Air                          1.0000000       -71.689    300.000

 O/F=   26.38171  %FUEL=  3.652073  R,EQ.RATIO= 1.299544  PHI,EQ.RATIO= 1.300000

                 CHAMBER   THROAT     EXIT
 Pinf/P            1.0000   1.8057   1.0000
 P, BAR            3.0397   1.6834   3.0397
 T, K             2339.84  2077.18  2339.84
 RHO, KG/CU M    3.5118-1 2.1907-1 3.5118-1
 H, KJ/KG         -1.4179  -483.77  -1.4179
 U, KJ/KG         -867.01 -1252.19  -867.01
 G, KJ/KG        -26517.1 -24022.9 -26517.1
 S, KJ/(KG)(K)    11.3323  11.3323  11.3323

 M, (1/n)          22.475   22.475   22.475
 Cp, KJ/(KG)(K)    1.8534   1.8181   1.8534
 GAMMAs            1.2494   1.2554   1.2494
 SON VEL,M/SEC     1039.9    982.2   1039.9
 MACH NUMBER        0.000    1.000      NaN

 TRANSPORT PROPERTIES (GASES ONLY)
   CONDUCTIVITY IN UNITS OF MILLIWATTS/(CM)(K)

 VISC,MILLIPOISE  0.78489  0.72318  0.78489

  WITH FROZEN REACTIONS

 Cp, KJ/(KG)(K)    1.8534   1.8181   1.8534
 CONDUCTIVITY      2.1893   1.9607   2.1893
 PRANDTL NUMBER    0.6645   0.6706   0.6645

 PERFORMANCE PARAMETERS

 Ae/At                      1.0000      NaN
 CSTAR, M/SEC               1412.7   1412.7
 CF                         0.6952      NaN
 Ivac, M/SEC                1764.5      NaN
 Isp, M/SEC                  982.2      NaN

 MASS FRACTIONS

 *Ar             0.01244   *CO             0.00019   *CO2            0.00017
 *H              0.00009   *H2             0.00840   H2O             0.24995
 *NO             0.00021   *N2             0.72750   *O              0.00001
 *OH             0.00099   *O2             0.00003

  * THERMODYNAMIC PROPERTIES FITTED TO 20000.K

    PRODUCTS WHICH WERE CONSIDERED BUT WHOSE MASS FRACTIONS
    WERE LESS THAN 5.000000E-06 FOR ALL ASSIGNED CONDITIONS



 NOTE. WEIGHT FRACTION OF FUEL IN TOTAL FUELS AND OF OXIDANT IN TOTAL OXIDANTS






 POINT ITN      T            H           N           O           AR
                    C 





           THEORETICAL ROCKET PERFORMANCE ASSUMING FROZEN COMPOSITION

 Pin =    73.5 PSIA
 CASE = problem1_______

             REACTANT                    WT FRACTION      ENERGY      TEMP
                                          (SEE NOTE)     KJ/KG-MOL      K  
 FUEL        H2                           1.0000000        53.359    300.000
 OXIDANT     Air                          1.0000000       -71.689    300.000

 O/F=   26.38171  %FUEL=  3.652073  R,EQ.RATIO= 1.299544  PHI,EQ.RATIO= 1.300000

                 CHAMBER   THROAT     EXIT
 Pinf/P            1.0000   1.8056   1.0000
 P, BAR            5.0663   2.8059   5.0663
 T, K             2344.47  2081.48  2344.47
 RHO, KG/CU M    5.8436-1 3.6453-1 5.8436-1
 H, KJ/KG         -1.4179  -484.49  -1.4179
 U, KJ/KG         -868.39 -1254.22  -868.39
 G, KJ/KG        -26126.6 -23679.2 -26126.6
 S, KJ/(KG)(K)    11.1433  11.1433  11.1433

 M, (1/n)          22.484   22.484   22.484
 Cp, KJ/(KG)(K)    1.8539   1.8187   1.8539
 GAMMAs            1.2492   1.2552   1.2492
 SON VEL,M/SEC     1040.7    982.9   1040.7
 MACH NUMBER        0.000    1.000    0.000

 TRANSPORT PROPERTIES (GASES ONLY)
   CONDUCTIVITY IN UNITS OF MILLIWATTS/(CM)(K)

 VISC,MILLIPOISE  0.78596  0.72421  0.78596

  WITH FROZEN REACTIONS

 Cp, KJ/(KG)(K)    1.8539   1.8187   1.8539
 CONDUCTIVITY      2.1922   1.9636   2.1922
 PRANDTL NUMBER    0.6647   0.6708   0.6647

 PERFORMANCE PARAMETERS

 Ae/At                      1.0000 Infinity
 CSTAR, M/SEC               1413.9   1413.9
 CF                         0.6952   0.0000
 Ivac, M/SEC                1766.0 Infinity
 Isp, M/SEC                  982.9      0.0

 MASS FRACTIONS

 *Ar             0.01244   *CO             0.00019   *CO2            0.00017
 *H              0.00007   *H2             0.00840   H2O             0.25021
 *NO             0.00017   *N2             0.72752   *O              0.00001
 *OH             0.00079   *O2             0.00002

  * THERMODYNAMIC PROPERTIES FITTED TO 20000.K

    PRODUCTS WHICH WERE CONSIDERED BUT WHOSE MASS FRACTIONS
    WERE LESS THAN 5.000000E-06 FOR ALL ASSIGNED CONDITIONS



 NOTE. WEIGHT FRACTION OF FUEL IN TOTAL FUELS AND OF OXIDANT IN TOTAL OXIDANTS






 O/F =  21.435141

                       EFFECTIVE FUEL     EFFECTIVE OXIDANT        MIXTURE
 ENTHALPY                  h(2)/R              h(1)/R               h0/R
 (KG-MOL)(K)/KG        0.31835169E+01     -0.29767190E+00     -0.14250511E+00

 KG-FORM.WT./KG             bi(2)               bi(1)               b0i
  *H                   0.99212255E+00      0.00000000E+00      0.44221810E-01
  *N                   0.00000000E+00      0.53915890E-01      0.51512701E-01
  *O                   0.00000000E+00      0.14486046E-01      0.13840360E-01
  *Ar                  0.00000000E+00      0.32331996E-03      0.30890864E-03
  *C                   0.00000000E+00      0.11013248E-04      0.10522355E-04

 POINT ITN      T            H           N           O           AR
                    C 





           THEORETICAL ROCKET PERFORMANCE ASSUMING FROZEN COMPOSITION

 Pin =    14.7 PSIA
 CASE = problem1_______

             REACTANT                    WT FRACTION      ENERGY      TEMP
                                          (SEE NOTE)     KJ/KG-MOL      K  
 FUEL        H2                           1.0000000        53.359    300.000
 OXIDANT     Air                          1.0000000       -71.689    300.000

 O/F=   21.43514  %FUEL=  4.457293  R,EQ.RATIO= 1.599088  PHI,EQ.RATIO= 1.600000

                 CHAMBER   THROAT     EXIT
 Pinf/P            1.0000   1.8106   1.0000
 P, BAR            1.0132  0.55962   1.0132
 T, K             2206.35  1952.11  2206.35
 RHO, KG/CU M    1.1445-1 7.1442-2 1.1445-1
 H, KJ/KG         -1.1849  -495.98  -1.1850
 U, KJ/KG         -886.53 -1279.31  -886.53
 G, KJ/KG        -27350.6 -24693.9 -27350.6
 S, KJ/(KG)(K)    12.3958  12.3958  12.3958

 M, (1/n)          20.721   20.721   20.721
 Cp, KJ/(KG)(K)    1.9661   1.9249   1.9661
 GAMMAs            1.2564   1.2634   1.2564
 SON VEL,M/SEC     1054.7    994.8   1054.7
 MACH NUMBER        0.000    1.000    0.000

 TRANSPORT PROPERTIES (GASES ONLY)
   CONDUCTIVITY IN UNITS OF MILLIWATTS/(CM)(K)

 VISC,MILLIPOISE  0.74727  0.68715  0.74727

  WITH FROZEN REACTIONS

 Cp, KJ/(KG)(K)    1.9661   1.9249   1.9661
 CONDUCTIVITY      2.3172   2.0706   2.3172
 PRANDTL NUMBER    0.6341   0.6388   0.6341

 PERFORMANCE PARAMETERS

 Ae/At                      1.0000  1265.84
 CSTAR, M/SEC               1425.7   1425.7
 CF                         0.6977   0.0003
 Ivac, M/SEC                1782.21804738.6
 Isp, M/SEC                  994.8      0.5

 MASS FRACTIONS

 *Ar             0.01234   *CO             0.00022   *CO2            0.00011
 *H              0.00012   *H2             0.01662   H2O             0.24850
 *NO             0.00007   *N2             0.72149   *OH             0.00052
 *O2             0.00001

  * THERMODYNAMIC PROPERTIES FITTED TO 20000.K

    PRODUCTS WHICH WERE CONSIDERED BUT WHOSE MASS FRACTIONS
    WERE LESS THAN 5.000000E-06 FOR ALL ASSIGNED CONDITIONS



 NOTE. WEIGHT FRACTION OF FUEL IN TOTAL FUELS AND OF OXIDANT IN TOTAL OXIDANTS






 POINT ITN      T            H           N           O           AR
                    C 





           THEORETICAL ROCKET PERFORMANCE ASSUMING FROZEN COMPOSITION

 Pin =    44.1 PSIA
 CASE = problem1_______

             REACTANT                    WT FRACTION      ENERGY      TEMP
                                          (SEE NOTE)     KJ/KG-MOL      K  
 FUEL        H2                           1.0000000        53.359    300.000
 OXIDANT     Air                          1.0000000       -71.689    300.000

 O/F=   21.43514  %FUEL=  4.457293  R,EQ.RATIO= 1.599088  PHI,EQ.RATIO= 1.600000

                 CHAMBER   THROAT     EXIT
 Pinf/P            1.0000   1.8104   1.0000
 P, BAR            3.0397   1.6791   3.0397
 T, K             2213.65  1958.90  2213.65
 RHO, KG/CU M    3.4242-1 2.1374-1 3.4242-1
 H, KJ/KG         -1.1849  -497.24  -1.1849
 U, KJ/KG         -888.91 -1282.80  -888.91
 G, KJ/KG        -26465.6 -23916.0 -26465.6
 S, KJ/(KG)(K)    11.9551  11.9551  11.9551

 M, (1/n)          20.733   20.733   20.733
 Cp, KJ/(KG)(K)    1.9670   1.9259   1.9670
 GAMMAs            1.2561   1.2630   1.2561
 SON VEL,M/SEC     1056.0    996.1   1056.0
 MACH NUMBER        0.000    1.000    0.000

 TRANSPORT PROPERTIES (GASES ONLY)
   CONDUCTIVITY IN UNITS OF MILLIWATTS/(CM)(K)

 VISC,MILLIPOISE  0.74894  0.68877  0.74894

  WITH FROZEN REACTIONS

 Cp, KJ/(KG)(K)    1.9670   1.9259   1.9670
 CONDUCTIVITY      2.3221   2.0754   2.3221
 PRANDTL NUMBER    0.6344   0.6392   0.6344

 PERFORMANCE PARAMETERS

 Ae/At                      1.0000  1627.10
 CSTAR, M/SEC               1427.8   1427.8
 CF                         0.6976   0.0003
 Ivac, M/SEC                1784.72323151.6
 Isp, M/SEC                  996.0      0.4

 MASS FRACTIONS

 *Ar             0.01234   *CO             0.00022   *CO2            0.00011
 *H              0.00007   *H2             0.01665   H2O             0.24874
 *NO             0.00004   *N2             0.72150   *OH             0.00032

  * THERMODYNAMIC PROPERTIES FITTED TO 20000.K

    PRODUCTS WHICH WERE CONSIDERED BUT WHOSE MASS FRACTIONS
    WERE LESS THAN 5.000000E-06 FOR ALL ASSIGNED CONDITIONS



 NOTE. WEIGHT FRACTION OF FUEL IN TOTAL FUELS AND OF OXIDANT IN TOTAL OXIDANTS






 POINT ITN      T            H           N           O           AR
                    C 





           THEORETICAL ROCKET PERFORMANCE ASSUMING FROZEN COMPOSITION

 Pin =    73.5 PSIA
 CASE = problem1_______

             REACTANT                    WT FRACTION      ENERGY      TEMP
                                          (SEE NOTE)     KJ/KG-MOL      K  
 FUEL        H2                           1.0000000        53.359    300.000
 OXIDANT     Air                          1.0000000       -71.689    300.000

 O/F=   21.43514  %FUEL=  4.457293  R,EQ.RATIO= 1.599088  PHI,EQ.RATIO= 1.600000

                 CHAMBER   THROAT     EXIT
 Pinf/P            1.0000   1.8103   1.0000
 P, BAR            5.0663   2.7986   5.0663
 T, K             2216.03  1961.10  2216.03
 RHO, KG/CU M    5.7020-1 3.5593-1 5.7021-1
 H, KJ/KG         -1.1849  -497.65  -1.1849
 U, KJ/KG         -889.68 -1283.94  -889.68
 G, KJ/KG        -26040.1 -23541.1 -26040.1
 S, KJ/(KG)(K)    11.7502  11.7502  11.7502

 M, (1/n)          20.738   20.738   20.738
 Cp, KJ/(KG)(K)    1.9673   1.9263   1.9673
 GAMMAs            1.2560   1.2629   1.2560
 SON VEL,M/SEC     1056.4    996.5   1056.4
 MACH NUMBER        0.000    1.000    0.000

 TRANSPORT PROPERTIES (GASES ONLY)
   CONDUCTIVITY IN UNITS OF MILLIWATTS/(CM)(K)

 VISC,MILLIPOISE  0.74949  0.68929  0.74949

  WITH FROZEN REACTIONS

 Cp, KJ/(KG)(K)    1.9673   1.9263   1.9673
 CONDUCTIVITY      2.3238   2.0770   2.3238
 PRANDTL NUMBER    0.6345   0.6393   0.6345

 PERFORMANCE PARAMETERS

 Ae/At                      1.0000  1840.40
 CSTAR, M/SEC               1428.5   1428.5
 CF                         0.6976   0.0002
 Ivac, M/SEC                1785.52628937.3
 Isp, M/SEC                  996.5      0.3

 MASS FRACTIONS

 *Ar             0.01234   *CO             0.00022   *CO2            0.00011
 *H              0.00006   *H2             0.01666   H2O             0.24882
 *NO             0.00003   *N2             0.72151   *OH             0.00025

  * THERMODYNAMIC PROPERTIES FITTED TO 20000.K

    PRODUCTS WHICH WERE CONSIDERED BUT WHOSE MASS FRACTIONS
    WERE LESS THAN 5.000000E-06 FOR ALL ASSIGNED CONDITIONS



 NOTE. WEIGHT FRACTION OF FUEL IN TOTAL FUELS AND OF OXIDANT IN TOTAL OXIDANTS






 O/F =  18.050645

                       EFFECTIVE FUEL     EFFECTIVE OXIDANT        MIXTURE
 ENTHALPY                  h(2)/R              h(1)/R               h0/R
 (KG-MOL)(K)/KG        0.31835169E+01     -0.29767190E+00     -0.11493852E+00

 KG-FORM.WT./KG             bi(2)               bi(1)               b0i
  *H                   0.99212255E+00      0.00000000E+00      0.52078160E-01
  *N                   0.00000000E+00      0.53915890E-01      0.51085755E-01
  *O                   0.00000000E+00      0.14486046E-01      0.13725649E-01
  *Ar                  0.00000000E+00      0.32331996E-03      0.30634835E-03
  *C                   0.00000000E+00      0.11013248E-04      0.10435144E-04

 POINT ITN      T            H           N           O           AR
                    C 





           THEORETICAL ROCKET PERFORMANCE ASSUMING FROZEN COMPOSITION

 Pin =    14.7 PSIA
 CASE = problem1_______

             REACTANT                    WT FRACTION      ENERGY      TEMP
                                          (SEE NOTE)     KJ/KG-MOL      K  
 FUEL        H2                           1.0000000        53.359    300.000
 OXIDANT     Air                          1.0000000       -71.689    300.000

 O/F=   18.05065  %FUEL=  5.249166  R,EQ.RATIO= 1.898632  PHI,EQ.RATIO= 1.900000

                 CHAMBER   THROAT     EXIT
 Pinf/P            1.0000   1.8151   1.0000
 P, BAR            1.0132  0.55825   1.0132
 T, K             2095.13  1848.07  2095.13
 RHO, KG/CU M    1.1198-1 6.9943-2 1.1198-1
 H, KJ/KG        -0.95566  -508.00 -0.95569
 U, KJ/KG         -905.79 -1306.14  -905.79
 G, KJ/KG        -27281.2 -24571.4 -27281.2
 S, KJ/(KG)(K)    13.0208  13.0208  13.0208

 M, (1/n)          19.252   19.252   19.252
 Cp, KJ/(KG)(K)    2.0751   2.0281   2.0751
 GAMMAs            1.2628   1.2706   1.2628
 SON VEL,M/SEC     1069.0   1007.0   1069.0
 MACH NUMBER        0.000    1.000    0.000

 TRANSPORT PROPERTIES (GASES ONLY)
   CONDUCTIVITY IN UNITS OF MILLIWATTS/(CM)(K)

 VISC,MILLIPOISE  0.71479  0.65608  0.71479

  WITH FROZEN REACTIONS

 Cp, KJ/(KG)(K)    2.0751   2.0281   2.0751
 CONDUCTIVITY      2.4302   2.1670   2.4302
 PRANDTL NUMBER    0.6103   0.6140   0.6103

 PERFORMANCE PARAMETERS

 Ae/At                      1.0000  2598.49
 CSTAR, M/SEC               1438.6   1438.6
 CF                         0.7000   0.0002
 Ivac, M/SEC                1799.63738115.8
 Isp, M/SEC                 1007.0      0.2

 MASS FRACTIONS

 *Ar             0.01224   *CO             0.00024   *CO2            0.00008
 *H              0.00008   *H2             0.02478   H2O             0.24683
 *NO             0.00002   *N2             0.71553   *OH             0.00019

  * THERMODYNAMIC PROPERTIES FITTED TO 20000.K

    PRODUCTS WHICH WERE CONSIDERED BUT WHOSE MASS FRACTIONS
    WERE LESS THAN 5.000000E-06 FOR ALL ASSIGNED CONDITIONS



 NOTE. WEIGHT FRACTION OF FUEL IN TOTAL FUELS AND OF OXIDANT IN TOTAL OXIDANTS






 POINT ITN      T            H           N           O           AR
                    C 





           THEORETICAL ROCKET PERFORMANCE ASSUMING FROZEN COMPOSITION

 Pin =    44.1 PSIA
 CASE = problem1_______

             REACTANT                    WT FRACTION      ENERGY      TEMP
                                          (SEE NOTE)     KJ/KG-MOL      K  
 FUEL        H2                           1.0000000        53.359    300.000
 OXIDANT     Air                          1.0000000       -71.689    300.000

 O/F=   18.05065  %FUEL=  5.249166  R,EQ.RATIO= 1.898632  PHI,EQ.RATIO= 1.900000

                 CHAMBER   THROAT     EXIT
 Pinf/P            1.0000   1.8149   1.0000
 P, BAR            3.0397   1.6749   3.0397
 T, K             2099.20  1851.86  2099.20
 RHO, KG/CU M    3.3541-1 2.0950-1 3.3541-1
 H, KJ/KG        -0.95566  -508.75 -0.95567
 U, KJ/KG         -907.24 -1308.24  -907.24
 G, KJ/KG        -26338.4 -23743.0 -26338.4
 S, KJ/(KG)(K)    12.5464  12.5464  12.5464

 M, (1/n)          19.259   19.259   19.259
 Cp, KJ/(KG)(K)    2.0757   2.0288   2.0757
 GAMMAs            1.2626   1.2703   1.2626
 SON VEL,M/SEC     1069.7   1007.8   1069.7
 MACH NUMBER        0.000    1.000    0.000

 TRANSPORT PROPERTIES (GASES ONLY)
   CONDUCTIVITY IN UNITS OF MILLIWATTS/(CM)(K)

 VISC,MILLIPOISE  0.71572  0.65698  0.71572

  WITH FROZEN REACTIONS

 Cp, KJ/(KG)(K)    2.0757   2.0288   2.0757
 CONDUCTIVITY      2.4332   2.1700   2.4332
 PRANDTL NUMBER    0.6105   0.6142   0.6105

 PERFORMANCE PARAMETERS

 Ae/At                      1.0000  3396.51
 CSTAR, M/SEC               1439.8   1439.8
 CF                         0.6999   0.0001
 Ivac, M/SEC                1801.14890336.1
 Isp, M/SEC                 1007.8      0.2

 MASS FRACTIONS

 *Ar             0.01224   *CO             0.00024   *CO2            0.00008
 *H              0.00005   *H2             0.02481   H2O             0.24692
 *NO             0.00001   *N2             0.71554   *OH             0.00011

  * THERMODYNAMIC PROPERTIES FITTED TO 20000.K

    PRODUCTS WHICH WERE CONSIDERED BUT WHOSE MASS FRACTIONS
    WERE LESS THAN 5.000000E-06 FOR ALL ASSIGNED CONDITIONS



 NOTE. WEIGHT FRACTION OF FUEL IN TOTAL FUELS AND OF OXIDANT IN TOTAL OXIDANTS






 POINT ITN      T            H           N           O           AR
                    C 





           THEORETICAL ROCKET PERFORMANCE ASSUMING FROZEN COMPOSITION

 Pin =    73.5 PSIA
 CASE = problem1_______

             REACTANT                    WT FRACTION      ENERGY      TEMP
                                          (SEE NOTE)     KJ/KG-MOL      K  
 FUEL        H2                           1.0000000        53.359    300.000
 OXIDANT     Air                          1.0000000       -71.689    300.000

 O/F=   18.05065  %FUEL=  5.249166  R,EQ.RATIO= 1.898632  PHI,EQ.RATIO= 1.900000

                 CHAMBER   THROAT     EXIT
 Pinf/P            1.0000   1.8148   1.0000
 P, BAR            5.0663   2.7916   5.0663
 T, K             2100.50  1853.06  2100.50
 RHO, KG/CU M    5.5873-1 3.4898-1 5.5873-1
 H, KJ/KG        -0.95566  -508.99 -0.95567
 U, KJ/KG         -907.70 -1308.92  -907.70
 G, KJ/KG        -25891.5 -23349.7 -25891.5
 S, KJ/(KG)(K)    12.3259  12.3259  12.3259

 M, (1/n)          19.261   19.261   19.261
 Cp, KJ/(KG)(K)    2.0759   2.0290   2.0759
 GAMMAs            1.2626   1.2703   1.2626
 SON VEL,M/SEC     1070.0   1008.0   1070.0
 MACH NUMBER        0.000    1.000    0.000

 TRANSPORT PROPERTIES (GASES ONLY)
   CONDUCTIVITY IN UNITS OF MILLIWATTS/(CM)(K)

 VISC,MILLIPOISE  0.71601  0.65727  0.71601

  WITH FROZEN REACTIONS

 Cp, KJ/(KG)(K)    2.0759   2.0290   2.0759
 CONDUCTIVITY      2.4342   2.1709   2.4342
 PRANDTL NUMBER    0.6106   0.6143   0.6106

 PERFORMANCE PARAMETERS

 Ae/At                      1.0000  3863.30
 CSTAR, M/SEC               1440.2   1440.2
 CF                         0.6999   0.0001
 Ivac, M/SEC                1801.65563936.0
 Isp, M/SEC                 1008.0      0.2

 MASS FRACTIONS

 *Ar             0.01224   *CO             0.00024   *CO2            0.00008
 *H              0.00004   *H2             0.02482   H2O             0.24695
 NH3             0.00001   *NO             0.00001   *N2             0.71553
 *OH             0.00009

  * THERMODYNAMIC PROPERTIES FITTED TO 20000.K

    PRODUCTS WHICH WERE CONSIDERED BUT WHOSE MASS FRACTIONS
    WERE LESS THAN 5.000000E-06 FOR ALL ASSIGNED CONDITIONS



 NOTE. WEIGHT FRACTION OF FUEL IN TOTAL FUELS AND OF OXIDANT IN TOTAL OXIDANTS






 O/F =  15.589193

                       EFFECTIVE FUEL     EFFECTIVE OXIDANT        MIXTURE
 ENTHALPY                  h(2)/R              h(1)/R               h0/R
 (KG-MOL)(K)/KG        0.31835169E+01     -0.29767190E+00     -0.87825123E-01

 KG-FORM.WT./KG             bi(2)               bi(1)               b0i
  *H                   0.99212255E+00      0.00000000E+00      0.59805352E-01
  *N                   0.00000000E+00      0.53915890E-01      0.50665829E-01
  *O                   0.00000000E+00      0.14486046E-01      0.13612824E-01
  *Ar                  0.00000000E+00      0.32331996E-03      0.30383016E-03
  *C                   0.00000000E+00      0.11013248E-04      0.10349367E-04

 POINT ITN      T            H           N           O           AR
                    C 





           THEORETICAL ROCKET PERFORMANCE ASSUMING FROZEN COMPOSITION

 Pin =    14.7 PSIA
 CASE = problem1_______

             REACTANT                    WT FRACTION      ENERGY      TEMP
                                          (SEE NOTE)     KJ/KG-MOL      K  
 FUEL        H2                           1.0000000        53.359    300.000
 OXIDANT     Air                          1.0000000       -71.689    300.000

 O/F=   15.58919  %FUEL=  6.028021  R,EQ.RATIO= 2.198175  PHI,EQ.RATIO= 2.200000

                 CHAMBER   THROAT     EXIT
 Pinf/P            1.0000   1.8193   1.0000
 P, BAR            1.0132  0.55693   1.0132
 T, K             1994.43  1754.09  1994.43
 RHO, KG/CU M    1.0995-1 6.8712-2 1.0995-1
 H, KJ/KG        -0.73022  -518.47 -0.73023
 U, KJ/KG         -922.32 -1329.00  -922.32
 G, KJ/KG        -27167.2 -24411.3 -27167.2
 S, KJ/(KG)(K)    13.6212  13.6212  13.6212

 M, (1/n)          17.994   17.994   17.994
 Cp, KJ/(KG)(K)    2.1797   2.1271   2.1797
 GAMMAs            1.2690   1.2775   1.2690
 SON VEL,M/SEC     1081.4   1017.6   1081.4
 MACH NUMBER        0.000    1.000    0.000

 TRANSPORT PROPERTIES (GASES ONLY)
   CONDUCTIVITY IN UNITS OF MILLIWATTS/(CM)(K)

 VISC,MILLIPOISE  0.68486  0.62746  0.68486

  WITH FROZEN REACTIONS

 Cp, KJ/(KG)(K)    2.1797   2.1271   2.1797
 CONDUCTIVITY      2.5244   2.2463   2.5244
 PRANDTL NUMBER    0.5913   0.5942   0.5913

 PERFORMANCE PARAMETERS

 Ae/At                      1.0000  5328.91
 CSTAR, M/SEC               1449.2   1449.2
 CF                         0.7022   0.0001
 Ivac, M/SEC                1814.17722407.8
 Isp, M/SEC                 1017.6      0.1

 MASS FRACTIONS

 *Ar             0.01214   *CO             0.00025   *CO2            0.00007
 *H              0.00005   *H2             0.03282   H2O             0.24494
 *N2             0.70966   *OH             0.00007

  * THERMODYNAMIC PROPERTIES FITTED TO 20000.K

    PRODUCTS WHICH WERE CONSIDERED BUT WHOSE MASS FRACTIONS
    WERE LESS THAN 5.000000E-06 FOR ALL ASSIGNED CONDITIONS



 NOTE. WEIGHT FRACTION OF FUEL IN TOTAL FUELS AND OF OXIDANT IN TOTAL OXIDANTS






 POINT ITN      T            H           N           O           AR
                    C 





           THEORETICAL ROCKET PERFORMANCE ASSUMING FROZEN COMPOSITION

 Pin =    44.1 PSIA
 CASE = problem1_______

             REACTANT                    WT FRACTION      ENERGY      TEMP
                                          (SEE NOTE)     KJ/KG-MOL      K  
 FUEL        H2                           1.0000000        53.359    300.000
 OXIDANT     Air                          1.0000000       -71.689    300.000

 O/F=   15.58919  %FUEL=  6.028021  R,EQ.RATIO= 2.198175  PHI,EQ.RATIO= 2.200000

                 CHAMBER   THROAT     EXIT
 Pinf/P            1.0000   1.8193   1.0000
 P, BAR            3.0397   1.6709   3.0397
 T, K             1996.70  1756.19  1996.70
 RHO, KG/CU M    3.2953-1 2.0594-1 3.2953-1
 H, KJ/KG        -0.73022  -518.93 -0.73023
 U, KJ/KG         -923.19 -1330.28  -923.19
 G, KJ/KG        -26184.6 -23548.9 -26184.6
 S, KJ/(KG)(K)    13.1136  13.1136  13.1136

 M, (1/n)          17.997   17.997   17.997
 Cp, KJ/(KG)(K)    2.1801   2.1275   2.1801
 GAMMAs            1.2689   1.2774   1.2689
 SON VEL,M/SEC     1081.9   1018.0   1081.9
 MACH NUMBER        0.000    1.000    0.000

 TRANSPORT PROPERTIES (GASES ONLY)
   CONDUCTIVITY IN UNITS OF MILLIWATTS/(CM)(K)

 VISC,MILLIPOISE  0.68537  0.62797  0.68537

  WITH FROZEN REACTIONS

 Cp, KJ/(KG)(K)    2.1801   2.1275   2.1801
 CONDUCTIVITY      2.5262   2.2481   2.5262
 PRANDTL NUMBER    0.5915   0.5943   0.5915

 PERFORMANCE PARAMETERS

 Ae/At                      1.0000  7038.67
 CSTAR, M/SEC               1449.9   1449.9
 CF                         0.7021   0.0001
 Ivac, M/SEC                1815.0*********
 Isp, M/SEC                 1018.0      0.1

 MASS FRACTIONS

 *Ar             0.01214   *CO             0.00025   *CO2            0.00007
 *H              0.00003   *H2             0.03284   H2O             0.24498
 NH3             0.00001   *N2             0.70965   *OH             0.00004

  * THERMODYNAMIC PROPERTIES FITTED TO 20000.K

    PRODUCTS WHICH WERE CONSIDERED BUT WHOSE MASS FRACTIONS
    WERE LESS THAN 5.000000E-06 FOR ALL ASSIGNED CONDITIONS



 NOTE. WEIGHT FRACTION OF FUEL IN TOTAL FUELS AND OF OXIDANT IN TOTAL OXIDANTS






 POINT ITN      T            H           N           O           AR
                    C 





           THEORETICAL ROCKET PERFORMANCE ASSUMING FROZEN COMPOSITION

 Pin =    73.5 PSIA
 CASE = problem1_______

             REACTANT                    WT FRACTION      ENERGY      TEMP
                                          (SEE NOTE)     KJ/KG-MOL      K  
 FUEL        H2                           1.0000000        53.359    300.000
 OXIDANT     Air                          1.0000000       -71.689    300.000

 O/F=   15.58919  %FUEL=  6.028021  R,EQ.RATIO= 2.198175  PHI,EQ.RATIO= 2.200000

                 CHAMBER   THROAT     EXIT
 Pinf/P            1.0000   1.8192   1.0000
 P, BAR            5.0663   2.7849   5.0663
 T, K             1997.42  1756.87  1997.42
 RHO, KG/CU M    5.4905-1 3.4314-1 5.4905-1
 H, KJ/KG        -0.73022  -519.06 -0.73023
 U, KJ/KG         -923.46 -1330.66  -923.46
 G, KJ/KG        -25722.7 -23143.3 -25722.7
 S, KJ/(KG)(K)    12.8776  12.8776  12.8776

 M, (1/n)          17.998   17.998   17.998
 Cp, KJ/(KG)(K)    2.1802   2.1277   2.1802
 GAMMAs            1.2689   1.2773   1.2689
 SON VEL,M/SEC     1082.0   1018.2   1082.0
 MACH NUMBER        0.000    1.000    0.000

 TRANSPORT PROPERTIES (GASES ONLY)
   CONDUCTIVITY IN UNITS OF MILLIWATTS/(CM)(K)

 VISC,MILLIPOISE  0.68554  0.62813  0.68554

  WITH FROZEN REACTIONS

 Cp, KJ/(KG)(K)    2.1802   2.1277   2.1802
 CONDUCTIVITY      2.5268   2.2487   2.5268
 PRANDTL NUMBER    0.5915   0.5943   0.5915

 PERFORMANCE PARAMETERS

 Ae/At                      1.0000  8033.13
 CSTAR, M/SEC               1450.1   1450.1
 CF                         0.7021   0.0001
 Ivac, M/SEC                1815.3*********
 Isp, M/SEC                 1018.2      0.1

 MASS FRACTIONS

 *Ar             0.01214   *CO             0.00025   *CO2            0.00007
 *H              0.00002   *H2             0.03284   H2O             0.24499
 NH3             0.00001   *N2             0.70965   *OH             0.00003

  * THERMODYNAMIC PROPERTIES FITTED TO 20000.K

    PRODUCTS WHICH WERE CONSIDERED BUT WHOSE MASS FRACTIONS
    WERE LESS THAN 5.000000E-06 FOR ALL ASSIGNED CONDITIONS



 NOTE. WEIGHT FRACTION OF FUEL IN TOTAL FUELS AND OF OXIDANT IN TOTAL OXIDANTS






 O/F =  13.718490

                       EFFECTIVE FUEL     EFFECTIVE OXIDANT        MIXTURE
 ENTHALPY                  h(2)/R              h(1)/R               h0/R
 (KG-MOL)(K)/KG        0.31835169E+01     -0.29767190E+00     -0.61153838E-01

 KG-FORM.WT./KG             bi(2)               bi(1)               b0i
  *H                   0.99212255E+00      0.00000000E+00      0.67406543E-01
  *N                   0.00000000E+00      0.53915890E-01      0.50252750E-01
  *O                   0.00000000E+00      0.14486046E-01      0.13501839E-01
  *Ar                  0.00000000E+00      0.32331996E-03      0.30135303E-03
  *C                   0.00000000E+00      0.11013248E-04      0.10264988E-04

 POINT ITN      T            H           N           O           AR
                    C 





           THEORETICAL ROCKET PERFORMANCE ASSUMING FROZEN COMPOSITION

 Pin =    14.7 PSIA
 CASE = problem1_______

             REACTANT                    WT FRACTION      ENERGY      TEMP
                                          (SEE NOTE)     KJ/KG-MOL      K  
 FUEL        H2                           1.0000000        53.359    300.000
 OXIDANT     Air                          1.0000000       -71.689    300.000

 O/F=   13.71849  %FUEL=  6.794175  R,EQ.RATIO= 2.497719  PHI,EQ.RATIO= 2.500000

                 CHAMBER   THROAT     EXIT
 Pinf/P            1.0000   1.8235   1.0000
 P, BAR            1.0132  0.55568   1.0132
 T, K             1903.54  1669.44  1903.54
 RHO, KG/CU M    1.0822-1 6.7673-2 1.0822-1
 H, KJ/KG        -0.50846  -527.76 -0.50847
 U, KJ/KG         -936.77 -1348.88  -936.77
 G, KJ/KG        -27031.7 -24234.7 -27031.7
 S, KJ/(KG)(K)    14.2005  14.2005  14.2005

 M, (1/n)          16.904   16.904   16.904
 Cp, KJ/(KG)(K)    2.2805   2.2224   2.2805
 GAMMAs            1.2750   1.2842   1.2750
 SON VEL,M/SEC     1092.6   1026.9   1092.6
 MACH NUMBER        0.000    1.000    0.000

 TRANSPORT PROPERTIES (GASES ONLY)
   CONDUCTIVITY IN UNITS OF MILLIWATTS/(CM)(K)

 VISC,MILLIPOISE  0.65736  0.60120  0.65736

  WITH FROZEN REACTIONS

 Cp, KJ/(KG)(K)    2.2805   2.2224   2.2805
 CONDUCTIVITY      2.6025   2.3113   2.6025
 PRANDTL NUMBER    0.5760   0.5781   0.5760

 PERFORMANCE PARAMETERS

 Ae/At                      1.0000  10859.0
 CSTAR, M/SEC               1458.1   1458.1
 CF                         0.7043   0.0000
 Ivac, M/SEC                1826.5*********
 Isp, M/SEC                 1026.9      0.1

 MASS FRACTIONS

 *Ar             0.01204   *CO             0.00025   *CO2            0.00006
 *H              0.00003   *H2             0.04072   H2O             0.24300
 *N2             0.70387   *OH             0.00003

  * THERMODYNAMIC PROPERTIES FITTED TO 20000.K

    PRODUCTS WHICH WERE CONSIDERED BUT WHOSE MASS FRACTIONS
    WERE LESS THAN 5.000000E-06 FOR ALL ASSIGNED CONDITIONS



 NOTE. WEIGHT FRACTION OF FUEL IN TOTAL FUELS AND OF OXIDANT IN TOTAL OXIDANTS






 POINT ITN      T            H           N           O           AR
                    C 





           THEORETICAL ROCKET PERFORMANCE ASSUMING FROZEN COMPOSITION

 Pin =    44.1 PSIA
 CASE = problem1_______

             REACTANT                    WT FRACTION      ENERGY      TEMP
                                          (SEE NOTE)     KJ/KG-MOL      K  
 FUEL        H2                           1.0000000        53.359    300.000
 OXIDANT     Air                          1.0000000       -71.689    300.000

 O/F=   13.71849  %FUEL=  6.794175  R,EQ.RATIO= 2.497719  PHI,EQ.RATIO= 2.500000

                 CHAMBER   THROAT     EXIT
 Pinf/P            1.0000   1.8234   1.0000
 P, BAR            3.0397   1.6671   3.0397
 T, K             1904.80  1670.61  1904.80
 RHO, KG/CU M    3.2449-1 2.0291-1 3.2449-1
 H, KJ/KG        -0.50846  -528.03 -0.50867
 U, KJ/KG         -937.29 -1349.64  -937.29
 G, KJ/KG        -26020.5 -23348.9 -26020.5
 S, KJ/(KG)(K)    13.6602  13.6602  13.6602

 M, (1/n)          16.906   16.906   16.906
 Cp, KJ/(KG)(K)    2.2807   2.2227   2.2807
 GAMMAs            1.2749   1.2841   1.2749
 SON VEL,M/SEC     1092.8   1027.2   1092.8
 MACH NUMBER        0.000    1.000    0.001

 TRANSPORT PROPERTIES (GASES ONLY)
   CONDUCTIVITY IN UNITS OF MILLIWATTS/(CM)(K)

 VISC,MILLIPOISE  0.65765  0.60148  0.65765

  WITH FROZEN REACTIONS

 Cp, KJ/(KG)(K)    2.2807   2.2227   2.2807
 CONDUCTIVITY      2.6036   2.3123   2.6036
 PRANDTL NUMBER    0.5761   0.5782   0.5761

 PERFORMANCE PARAMETERS

 Ae/At                      1.0000  1002.49
 CSTAR, M/SEC               1458.5   1458.5
 CF                         0.7043   0.0004
 Ivac, M/SEC                1827.01462134.9
 Isp, M/SEC                 1027.2      0.6

 MASS FRACTIONS

 *Ar             0.01204   *CO             0.00025   *CO2            0.00006
 *H              0.00002   *H2             0.04073   H2O             0.24301
 NH3             0.00001   *N2             0.70387   *OH             0.00002

  * THERMODYNAMIC PROPERTIES FITTED TO 20000.K

    PRODUCTS WHICH WERE CONSIDERED BUT WHOSE MASS FRACTIONS
    WERE LESS THAN 5.000000E-06 FOR ALL ASSIGNED CONDITIONS



 NOTE. WEIGHT FRACTION OF FUEL IN TOTAL FUELS AND OF OXIDANT IN TOTAL OXIDANTS






 POINT ITN      T            H           N           O           AR
                    C 





           THEORETICAL ROCKET PERFORMANCE ASSUMING FROZEN COMPOSITION

 Pin =    73.5 PSIA
 CASE = problem1_______

             REACTANT                    WT FRACTION      ENERGY      TEMP
                                          (SEE NOTE)     KJ/KG-MOL      K  
 FUEL        H2                           1.0000000        53.359    300.000
 OXIDANT     Air                          1.0000000       -71.689    300.000

 O/F=   13.71849  %FUEL=  6.794175  R,EQ.RATIO= 2.497719  PHI,EQ.RATIO= 2.500000

                 CHAMBER   THROAT     EXIT
 Pinf/P            1.0000   1.8234   1.0000
 P, BAR            5.0663   2.7785   5.0663
 T, K             1905.20  1670.98  1905.20
 RHO, KG/CU M    5.4072-1 3.3812-1 5.4072-1
 H, KJ/KG        -0.50846  -528.12 -0.50859
 U, KJ/KG         -937.45 -1349.87  -937.45
 G, KJ/KG        -25547.3 -22934.3 -25547.3
 S, KJ/(KG)(K)    13.4090  13.4090  13.4090

 M, (1/n)          16.907   16.907   16.907
 Cp, KJ/(KG)(K)    2.2808   2.2228   2.2808
 GAMMAs            1.2749   1.2841   1.2749
 SON VEL,M/SEC     1092.9   1027.2   1092.9
 MACH NUMBER        0.000    1.000    0.000

 TRANSPORT PROPERTIES (GASES ONLY)
   CONDUCTIVITY IN UNITS OF MILLIWATTS/(CM)(K)

 VISC,MILLIPOISE  0.65774  0.60157  0.65774

  WITH FROZEN REACTIONS

 Cp, KJ/(KG)(K)    2.2808   2.2228   2.2808
 CONDUCTIVITY      2.6040   2.3127   2.6040
 PRANDTL NUMBER    0.5761   0.5782   0.5761

 PERFORMANCE PARAMETERS

 Ae/At                      1.0000  1289.13
 CSTAR, M/SEC               1458.6   1458.6
 CF                         0.7042   0.0003
 Ivac, M/SEC                1827.21880381.0
 Isp, M/SEC                 1027.2      0.5

 MASS FRACTIONS

 *Ar             0.01204   *CO             0.00025   *CO2            0.00006
 *H              0.00001   *H2             0.04073   H2O             0.24301
 NH3             0.00002   *N2             0.70386   *OH             0.00001

  * THERMODYNAMIC PROPERTIES FITTED TO 20000.K

    PRODUCTS WHICH WERE CONSIDERED BUT WHOSE MASS FRACTIONS
    WERE LESS THAN 5.000000E-06 FOR ALL ASSIGNED CONDITIONS



 NOTE. WEIGHT FRACTION OF FUEL IN TOTAL FUELS AND OF OXIDANT IN TOTAL OXIDANTS






 O/F =  12.248652

                       EFFECTIVE FUEL     EFFECTIVE OXIDANT        MIXTURE
 ENTHALPY                  h(2)/R              h(1)/R               h0/R
 (KG-MOL)(K)/KG        0.31835169E+01     -0.29767190E+00     -0.34913939E-01

 KG-FORM.WT./KG             bi(2)               bi(1)               b0i
  *H                   0.99212255E+00      0.00000000E+00      0.74884792E-01
  *N                   0.00000000E+00      0.53915890E-01      0.49846352E-01
  *O                   0.00000000E+00      0.14486046E-01      0.13392648E-01
  *Ar                  0.00000000E+00      0.32331996E-03      0.29891597E-03
  *C                   0.00000000E+00      0.11013248E-04      0.10181975E-04

 POINT ITN      T            H           N           O           AR
                    C 





           THEORETICAL ROCKET PERFORMANCE ASSUMING FROZEN COMPOSITION

 Pin =    14.7 PSIA
 CASE = problem1_______

             REACTANT                    WT FRACTION      ENERGY      TEMP
                                          (SEE NOTE)     KJ/KG-MOL      K  
 FUEL        H2                           1.0000000        53.359    300.000
 OXIDANT     Air                          1.0000000       -71.689    300.000

 O/F=   12.24865  %FUEL=  7.547938  R,EQ.RATIO= 2.797263  PHI,EQ.RATIO= 2.800000

                 CHAMBER   THROAT     EXIT
 Pinf/P            1.0000   1.8274   1.0000
 P, BAR            1.0132  0.55448   1.0132
 T, K             1821.40  1593.11  1821.40
 RHO, KG/CU M    1.0674-1 6.6781-2 1.0674-1
 H, KJ/KG        -0.29029  -536.09 -0.29042
 U, KJ/KG         -949.56 -1366.38  -949.56
 G, KJ/KG        -26886.5 -24052.5 -26886.5
 S, KJ/(KG)(K)    14.7613  14.7613  14.7613

 M, (1/n)          15.953   15.953   15.953
 Cp, KJ/(KG)(K)    2.3778   2.3145   2.3778
 GAMMAs            1.2807   1.2906   1.2807
 SON VEL,M/SEC     1102.6   1035.2   1102.6
 MACH NUMBER        0.000    1.000    0.000

 TRANSPORT PROPERTIES (GASES ONLY)
   CONDUCTIVITY IN UNITS OF MILLIWATTS/(CM)(K)

 VISC,MILLIPOISE  0.63209  0.57708  0.63209

  WITH FROZEN REACTIONS

 Cp, KJ/(KG)(K)    2.3778   2.3145   2.3778
 CONDUCTIVITY      2.6670   2.3642   2.6670
 PRANDTL NUMBER    0.5635   0.5650   0.5635

 PERFORMANCE PARAMETERS

 Ae/At                      1.0000  1298.40
 CSTAR, M/SEC               1465.7   1465.7
 CF                         0.7063   0.0003
 Ivac, M/SEC                1837.31903077.5
 Isp, M/SEC                 1035.2      0.5

 MASS FRACTIONS

 *Ar             0.01194   *CO             0.00025   *CO2            0.00006
 *H              0.00002   *H2             0.04849   H2O             0.24105
 *N2             0.69818   *OH             0.00001

  * THERMODYNAMIC PROPERTIES FITTED TO 20000.K

    PRODUCTS WHICH WERE CONSIDERED BUT WHOSE MASS FRACTIONS
    WERE LESS THAN 5.000000E-06 FOR ALL ASSIGNED CONDITIONS



 NOTE. WEIGHT FRACTION OF FUEL IN TOTAL FUELS AND OF OXIDANT IN TOTAL OXIDANTS






 POINT ITN      T            H           N           O           AR
                    C 





           THEORETICAL ROCKET PERFORMANCE ASSUMING FROZEN COMPOSITION

 Pin =    44.1 PSIA
 CASE = problem1_______

             REACTANT                    WT FRACTION      ENERGY      TEMP
                                          (SEE NOTE)     KJ/KG-MOL      K  
 FUEL        H2                           1.0000000        53.359    300.000
 OXIDANT     Air                          1.0000000       -71.689    300.000

 O/F=   12.24865  %FUEL=  7.547938  R,EQ.RATIO= 2.797263  PHI,EQ.RATIO= 2.800000

                 CHAMBER   THROAT     EXIT
 Pinf/P            1.0000   1.8274   1.0000
 P, BAR            3.0397   1.6635   3.0397
 T, K             1822.11  1593.77  1822.11
 RHO, KG/CU M    3.2011-1 2.0028-1 3.2011-1
 H, KJ/KG        -0.29029  -536.25 -0.29033
 U, KJ/KG         -949.87 -1366.83  -949.87
 G, KJ/KG        -25853.7 -23149.8 -25853.7
 S, KJ/(KG)(K)    14.1887  14.1887  14.1887

 M, (1/n)          15.954   15.954   15.954
 Cp, KJ/(KG)(K)    2.3780   2.3147   2.3780
 GAMMAs            1.2807   1.2906   1.2807
 SON VEL,M/SEC     1102.8   1035.3   1102.8
 MACH NUMBER        0.000    1.000    0.000

 TRANSPORT PROPERTIES (GASES ONLY)
   CONDUCTIVITY IN UNITS OF MILLIWATTS/(CM)(K)

 VISC,MILLIPOISE  0.63225  0.57724  0.63225

  WITH FROZEN REACTIONS

 Cp, KJ/(KG)(K)    2.3780   2.3147   2.3780
 CONDUCTIVITY      2.6677   2.3648   2.6677
 PRANDTL NUMBER    0.5636   0.5650   0.5636

 PERFORMANCE PARAMETERS

 Ae/At                      1.0000  2232.06
 CSTAR, M/SEC               1466.0   1466.0
 CF                         0.7063   0.0002
 Ivac, M/SEC                1837.63272115.0
 Isp, M/SEC                 1035.3      0.3

 MASS FRACTIONS

 *Ar             0.01194   *CO             0.00025   *CO2            0.00006
 *H              0.00001   *H2             0.04849   H2O             0.24106
 NH3             0.00001   *N2             0.69817   *OH             0.00001

  * THERMODYNAMIC PROPERTIES FITTED TO 20000.K

    PRODUCTS WHICH WERE CONSIDERED BUT WHOSE MASS FRACTIONS
    WERE LESS THAN 5.000000E-06 FOR ALL ASSIGNED CONDITIONS



 NOTE. WEIGHT FRACTION OF FUEL IN TOTAL FUELS AND OF OXIDANT IN TOTAL OXIDANTS






 POINT ITN      T            H           N           O           AR
                    C 





           THEORETICAL ROCKET PERFORMANCE ASSUMING FROZEN COMPOSITION

 Pin =    73.5 PSIA
 CASE = problem1_______

             REACTANT                    WT FRACTION      ENERGY      TEMP
                                          (SEE NOTE)     KJ/KG-MOL      K  
 FUEL        H2                           1.0000000        53.359    300.000
 OXIDANT     Air                          1.0000000       -71.689    300.000

 O/F=   12.24865  %FUEL=  7.547938  R,EQ.RATIO= 2.797263  PHI,EQ.RATIO= 2.800000

                 CHAMBER   THROAT     EXIT
 Pinf/P            1.0000   1.8273   1.0000
 P, BAR            5.0663   2.7725   5.0663
 T, K             1822.34  1593.98  1822.34
 RHO, KG/CU M    5.3347-1 3.3376-1 5.3347-1
 H, KJ/KG        -0.29029  -536.30 -0.29032
 U, KJ/KG         -949.97 -1366.97  -949.97
 G, KJ/KG        -25371.8 -22728.5 -25371.8
 S, KJ/(KG)(K)    13.9225  13.9225  13.9225

 M, (1/n)          15.955   15.955   15.955
 Cp, KJ/(KG)(K)    2.3780   2.3147   2.3780
 GAMMAs            1.2806   1.2906   1.2806
 SON VEL,M/SEC     1102.8   1035.4   1102.8
 MACH NUMBER        0.000    1.000    0.000

 TRANSPORT PROPERTIES (GASES ONLY)
   CONDUCTIVITY IN UNITS OF MILLIWATTS/(CM)(K)

 VISC,MILLIPOISE  0.63231  0.57729  0.63231

  WITH FROZEN REACTIONS

 Cp, KJ/(KG)(K)    2.3780   2.3147   2.3780
 CONDUCTIVITY      2.6679   2.3650   2.6679
 PRANDTL NUMBER    0.5636   0.5650   0.5636

 PERFORMANCE PARAMETERS

 Ae/At                      1.0000  2873.43
 CSTAR, M/SEC               1466.0   1466.0
 CF                         0.7062   0.0002
 Ivac, M/SEC                1837.74212561.4
 Isp, M/SEC                 1035.4      0.2

 MASS FRACTIONS

 *Ar             0.01194   *CO             0.00025   *CO2            0.00006
 *H              0.00001   *H2             0.04849   H2O             0.24106
 NH3             0.00002   *N2             0.69816   *OH             0.00001

  * THERMODYNAMIC PROPERTIES FITTED TO 20000.K

    PRODUCTS WHICH WERE CONSIDERED BUT WHOSE MASS FRACTIONS
    WERE LESS THAN 5.000000E-06 FOR ALL ASSIGNED CONDITIONS



 NOTE. WEIGHT FRACTION OF FUEL IN TOTAL FUELS AND OF OXIDANT IN TOTAL OXIDANTS






 O/F =  11.063299

                       EFFECTIVE FUEL     EFFECTIVE OXIDANT        MIXTURE
 ENTHALPY                  h(2)/R              h(1)/R               h0/R
 (KG-MOL)(K)/KG        0.31835169E+01     -0.29767190E+00     -0.90950434E-02

 KG-FORM.WT./KG             bi(2)               bi(1)               b0i
  *H                   0.99212255E+00      0.00000000E+00      0.82243057E-01
  *N                   0.00000000E+00      0.53915890E-01      0.49446475E-01
  *O                   0.00000000E+00      0.14486046E-01      0.13285210E-01
  *Ar                  0.00000000E+00      0.32331996E-03      0.29651800E-03
  *C                   0.00000000E+00      0.11013248E-04      0.10100293E-04

 POINT ITN      T            H           N           O           AR
                    C 





           THEORETICAL ROCKET PERFORMANCE ASSUMING FROZEN COMPOSITION

 Pin =    14.7 PSIA
 CASE = problem1_______

             REACTANT                    WT FRACTION      ENERGY      TEMP
                                          (SEE NOTE)     KJ/KG-MOL      K  
 FUEL        H2                           1.0000000        53.359    300.000
 OXIDANT     Air                          1.0000000       -71.689    300.000

 O/F=   11.06330  %FUEL=  8.289607  R,EQ.RATIO= 3.096807  PHI,EQ.RATIO= 3.100000

                 CHAMBER   THROAT     EXIT
 Pinf/P            1.0000   1.8311   1.0000
 P, BAR            1.0132  0.55335   1.0132
 T, K             1746.98  1524.10  1746.98
 RHO, KG/CU M    1.0544-1 6.6005-2 1.0544-1
 H, KJ/KG        -0.07562  -543.63 -0.07565
 U, KJ/KG         -961.01 -1381.97  -961.01
 G, KJ/KG        -26738.1 -23870.4 -26738.1
 S, KJ/(KG)(K)    15.3053  15.3053  15.3053

 M, (1/n)          15.116   15.116   15.116
 Cp, KJ/(KG)(K)    2.4720   2.4037   2.4720
 GAMMAs            1.2862   1.2967   1.2862
 SON VEL,M/SEC     1111.7   1042.6   1111.7
 MACH NUMBER        0.000    1.000    0.000

 TRANSPORT PROPERTIES (GASES ONLY)
   CONDUCTIVITY IN UNITS OF MILLIWATTS/(CM)(K)

 VISC,MILLIPOISE  0.60883  0.55491  0.60883

  WITH FROZEN REACTIONS

 Cp, KJ/(KG)(K)    2.4720   2.4037   2.4720
 CONDUCTIVITY      2.7200   2.4071   2.7200
 PRANDTL NUMBER    0.5533   0.5541   0.5533

 PERFORMANCE PARAMETERS

 Ae/At                      1.0000  2821.08
 CSTAR, M/SEC               1472.3   1472.3
 CF                         0.7082   0.0002
 Ivac, M/SEC                1846.74153560.7
 Isp, M/SEC                 1042.6      0.2

 MASS FRACTIONS

 *Ar             0.01185   *CO             0.00025   *CO2            0.00005
 *H              0.00001   *H2             0.05613   H2O             0.23913
 NH3             0.00001   *N2             0.69258   *OH             0.00001

  * THERMODYNAMIC PROPERTIES FITTED TO 20000.K

    PRODUCTS WHICH WERE CONSIDERED BUT WHOSE MASS FRACTIONS
    WERE LESS THAN 5.000000E-06 FOR ALL ASSIGNED CONDITIONS



 NOTE. WEIGHT FRACTION OF FUEL IN TOTAL FUELS AND OF OXIDANT IN TOTAL OXIDANTS






 POINT ITN      T            H           N           O           AR
                    C 





           THEORETICAL ROCKET PERFORMANCE ASSUMING FROZEN COMPOSITION

 Pin =    44.1 PSIA
 CASE = problem1_______

             REACTANT                    WT FRACTION      ENERGY      TEMP
                                          (SEE NOTE)     KJ/KG-MOL      K  
 FUEL        H2                           1.0000000        53.359    300.000
 OXIDANT     Air                          1.0000000       -71.689    300.000

 O/F=   11.06330  %FUEL=  8.289607  R,EQ.RATIO= 3.096807  PHI,EQ.RATIO= 3.100000

                 CHAMBER   THROAT     EXIT
 Pinf/P            1.0000   1.8311   1.0000
 P, BAR            3.0397   1.6601   3.0397
 T, K             1747.39  1524.48  1747.39
 RHO, KG/CU M    3.1627-1 1.9798-1 3.1627-1
 H, KJ/KG        -0.07562  -543.72 -0.07563
 U, KJ/KG         -961.19 -1382.23  -961.19
 G, KJ/KG        -25688.4 -22955.0 -25688.4
 S, KJ/(KG)(K)    14.7010  14.7010  14.7010

 M, (1/n)          15.116   15.116   15.116
 Cp, KJ/(KG)(K)    2.4721   2.4038   2.4721
 GAMMAs            1.2862   1.2967   1.2862
 SON VEL,M/SEC     1111.8   1042.7   1111.8
 MACH NUMBER        0.000    1.000    0.000

 TRANSPORT PROPERTIES (GASES ONLY)
   CONDUCTIVITY IN UNITS OF MILLIWATTS/(CM)(K)

 VISC,MILLIPOISE  0.60892  0.55500  0.60892

  WITH FROZEN REACTIONS

[...]
   CONDUCTIVITY IN UNITS OF MILLIWATTS/(CM)(K)

 VISC,MILLIPOISE  0.54907  0.49808  0.54907

  WITH FROZEN REACTIONS

 Cp, KJ/(KG)(K)    2.7387   2.6576   2.7387
 CONDUCTIVITY      2.8265   2.4915   2.8265
 PRANDTL NUMBER    0.5320   0.5313   0.5320

 PERFORMANCE PARAMETERS

 Ae/At                      1.0000  25750.6
 CSTAR, M/SEC               1487.8   1487.8
 CF                         0.7133   0.0000
 Ivac, M/SEC                1869.2*********
 Isp, M/SEC                 1061.2      0.0

 MASS FRACTIONS

 *Ar             0.01157   *CO             0.00025   *CO2            0.00005
 *H2             0.07831   H2O             0.23352   NH3             0.00001
 *N2             0.67629

  * THERMODYNAMIC PROPERTIES FITTED TO 20000.K

    PRODUCTS WHICH WERE CONSIDERED BUT WHOSE MASS FRACTIONS
    WERE LESS THAN 5.000000E-06 FOR ALL ASSIGNED CONDITIONS



 NOTE. WEIGHT FRACTION OF FUEL IN TOTAL FUELS AND OF OXIDANT IN TOTAL OXIDANTS






 POINT ITN      T            H           N           O           AR
                    C 





           THEORETICAL ROCKET PERFORMANCE ASSUMING FROZEN COMPOSITION

 Pin =    44.1 PSIA
 CASE = problem1_______

             REACTANT                    WT FRACTION      ENERGY      TEMP
                                          (SEE NOTE)     KJ/KG-MOL      K  
 FUEL        H2                           1.0000000        53.359    300.000
 OXIDANT     Air                          1.0000000       -71.689    300.000

 O/F=    8.57406  %FUEL= 10.444894  R,EQ.RATIO= 3.995438  PHI,EQ.RATIO= 4.000000

                 CHAMBER   THROAT     EXIT
 Pinf/P            1.0000   1.8413   1.0000
 P, BAR            3.0397   1.6509   3.0397
 T, K             1561.20  1352.57  1561.20
 RHO, KG/CU M    3.0710-1 1.9252-1 3.0710-1
 H, KJ/KG         0.54821  -562.55  0.54821
 U, KJ/KG         -989.26 -1420.09  -989.26
 G, KJ/KG        -25216.1 -22409.3 -25216.1
 S, KJ/(KG)(K)    16.1521  16.1521  16.1521

 M, (1/n)          13.114   13.114   13.114
 Cp, KJ/(KG)(K)    2.7387   2.6576   2.7387
 GAMMAs            1.3012   1.3133   1.3012
 SON VEL,M/SEC     1134.9   1061.2   1134.9
 MACH NUMBER        0.000    1.000      NaN

 TRANSPORT PROPERTIES (GASES ONLY)
   CONDUCTIVITY IN UNITS OF MILLIWATTS/(CM)(K)

 VISC,MILLIPOISE  0.54910  0.49810  0.54910

  WITH FROZEN REACTIONS

 Cp, KJ/(KG)(K)    2.7387   2.6576   2.7387
 CONDUCTIVITY      2.8266   2.4916   2.8266
 PRANDTL NUMBER    0.5320   0.5313   0.5320

 PERFORMANCE PARAMETERS

 Ae/At                      1.0000      NaN
 CSTAR, M/SEC               1487.9   1487.9
 CF                         0.7133      NaN
 Ivac, M/SEC                1869.3      NaN
 Isp, M/SEC                 1061.2      NaN

 MASS FRACTIONS

 *Ar             0.01157   *CO             0.00025   *CO2            0.00005
 *H2             0.07831   H2O             0.23352   NH3             0.00004
 *N2             0.67627

  * THERMODYNAMIC PROPERTIES FITTED TO 20000.K

    PRODUCTS WHICH WERE CONSIDERED BUT WHOSE MASS FRACTIONS
    WERE LESS THAN 5.000000E-06 FOR ALL ASSIGNED CONDITIONS



 NOTE. WEIGHT FRACTION OF FUEL IN TOTAL FUELS AND OF OXIDANT IN TOTAL OXIDANTS






 POINT ITN      T            H           N           O           AR
                    C 





           THEORETICAL ROCKET PERFORMANCE ASSUMING FROZEN COMPOSITION

 Pin =    73.5 PSIA
 CASE = problem1_______

             REACTANT                    WT FRACTION      ENERGY      TEMP
                                          (SEE NOTE)     KJ/KG-MOL      K  
 FUEL        H2                           1.0000000        53.359    300.000
 OXIDANT     Air                          1.0000000       -71.689    300.000

 O/F=    8.57406  %FUEL= 10.444894  R,EQ.RATIO= 3.995438  PHI,EQ.RATIO= 4.000000

                 CHAMBER   THROAT     EXIT
 Pinf/P            1.0000   1.8413   1.0000
 P, BAR            5.0663   2.7515   5.0663
 T, K             1561.26  1352.62  1561.26
 RHO, KG/CU M    5.1184-1 3.2086-1 5.1184-1
 H, KJ/KG         0.54821  -562.56  0.54821
 U, KJ/KG         -989.27 -1420.11  -989.27
 G, KJ/KG        -24711.3 -21972.2 -24711.3
 S, KJ/(KG)(K)    15.8282  15.8282  15.8282

 M, (1/n)          13.115   13.115   13.115
 Cp, KJ/(KG)(K)    2.7387   2.6576   2.7387
 GAMMAs            1.3012   1.3133   1.3012
 SON VEL,M/SEC     1134.9   1061.2   1134.9
 MACH NUMBER        0.000    1.000      NaN

 TRANSPORT PROPERTIES (GASES ONLY)
   CONDUCTIVITY IN UNITS OF MILLIWATTS/(CM)(K)

 VISC,MILLIPOISE  0.54911  0.49812  0.54911

  WITH FROZEN REACTIONS

 Cp, KJ/(KG)(K)    2.7387   2.6576   2.7387
 CONDUCTIVITY      2.8266   2.4916   2.8266
 PRANDTL NUMBER    0.5320   0.5313   0.5320

 PERFORMANCE PARAMETERS

 Ae/At                     1.00000      NaN
 CSTAR, M/SEC               1487.9   1487.9
 CF                         0.7133      NaN
 Ivac, M/SEC                1869.3      NaN
 Isp, M/SEC                 1061.2      NaN

 MASS FRACTIONS

 *Ar             0.01157   *CO             0.00025   *CO2            0.00005
 *H2             0.07831   H2O             0.23352   NH3             0.00007
 *N2             0.67625

  * THERMODYNAMIC PROPERTIES FITTED TO 20000.K

    PRODUCTS WHICH WERE CONSIDERED BUT WHOSE MASS FRACTIONS
    WERE LESS THAN 5.000000E-06 FOR ALL ASSIGNED CONDITIONS



 NOTE. WEIGHT FRACTION OF FUEL IN TOTAL FUELS AND OF OXIDANT IN TOTAL OXIDANTS






 O/F =   7.975866

                       EFFECTIVE FUEL     EFFECTIVE OXIDANT        MIXTURE
 ENTHALPY                  h(2)/R              h(1)/R               h0/R
 (KG-MOL)(K)/KG        0.31835169E+01     -0.29767190E+00      0.90166847E-01

 KG-FORM.WT./KG             bi(2)               bi(1)               b0i
  *H                   0.99212255E+00      0.00000000E+00      0.11053223E+00
  *N                   0.00000000E+00      0.53915890E-01      0.47909128E-01
  *O                   0.00000000E+00      0.14486046E-01      0.12872158E-01
  *Ar                  0.00000000E+00      0.32331996E-03      0.28729893E-03
  *C                   0.00000000E+00      0.11013248E-04      0.97862634E-05

 POINT ITN      T            H           N           O           AR
                    C 





           THEORETICAL ROCKET PERFORMANCE ASSUMING FROZEN COMPOSITION

 Pin =    14.7 PSIA
 CASE = problem1_______

             REACTANT                    WT FRACTION      ENERGY      TEMP
                                          (SEE NOTE)     KJ/KG-MOL      K  
 FUEL        H2                           1.0000000        53.359    300.000
 OXIDANT     Air                          1.0000000       -71.689    300.000

 O/F=    7.97587  %FUEL= 11.140986  R,EQ.RATIO= 4.294982  PHI,EQ.RATIO= 4.300000

                 CHAMBER   THROAT     EXIT
 Pinf/P            1.0000   1.8443   1.0000
 P, BAR            1.0132  0.54939   1.0132
 T, K             1509.15  1304.74  1509.15
 RHO, KG/CU M    1.0155-1 6.3689-2 1.0155-1
 H, KJ/KG         0.74969  -567.84  0.74969
 U, KJ/KG         -997.02 -1430.46  -997.02
 G, KJ/KG        -26163.0 -23187.6 -26163.0
 S, KJ/(KG)(K)    17.3367  17.3367  17.3367

 M, (1/n)          12.576   12.576   12.576
 Cp, KJ/(KG)(K)    2.8230   2.7384   2.8230
 GAMMAs            1.3058   1.3183   1.3058
 SON VEL,M/SEC     1141.5   1066.4   1141.5
 MACH NUMBER        0.000    1.000      NaN

 TRANSPORT PROPERTIES (GASES ONLY)
   CONDUCTIVITY IN UNITS OF MILLIWATTS/(CM)(K)

 VISC,MILLIPOISE  0.53193  0.48182  0.53193

  WITH FROZEN REACTIONS

 Cp, KJ/(KG)(K)    2.8230   2.7384   2.8230
 CONDUCTIVITY      2.8489   2.5088   2.8489
 PRANDTL NUMBER    0.5271   0.5259   0.5271

 PERFORMANCE PARAMETERS

 Ae/At                      1.0000      NaN
 CSTAR, M/SEC               1491.9   1491.9
 CF                         0.7148      NaN
 Ivac, M/SEC                1875.3      NaN
 Isp, M/SEC                 1066.4      NaN

 MASS FRACTIONS

 *Ar             0.01148   *CO             0.00025   *CO2            0.00004
 *H2             0.08548   H2O             0.23170   NH3             0.00002
 *N2             0.67103

  * THERMODYNAMIC PROPERTIES FITTED TO 20000.K

    PRODUCTS WHICH WERE CONSIDERED BUT WHOSE MASS FRACTIONS
    WERE LESS THAN 5.000000E-06 FOR ALL ASSIGNED CONDITIONS



 NOTE. WEIGHT FRACTION OF FUEL IN TOTAL FUELS AND OF OXIDANT IN TOTAL OXIDANTS






 POINT ITN      T            H           N           O           AR
                    C 





           THEORETICAL ROCKET PERFORMANCE ASSUMING FROZEN COMPOSITION

 Pin =    44.1 PSIA
 CASE = problem1_______

             REACTANT                    WT FRACTION      ENERGY      TEMP
                                          (SEE NOTE)     KJ/KG-MOL      K  
 FUEL        H2                           1.0000000        53.359    300.000
 OXIDANT     Air                          1.0000000       -71.689    300.000

 O/F=    7.97587  %FUEL= 11.140986  R,EQ.RATIO= 4.294982  PHI,EQ.RATIO= 4.300000

                 CHAMBER   THROAT     EXIT
 Pinf/P            1.0000   1.8443   1.0000
 P, BAR            3.0397   1.6482   3.0397
 T, K             1509.23  1304.81  1509.23
 RHO, KG/CU M    3.0465-1 1.9106-1 3.0465-1
 H, KJ/KG         0.74969  -567.85  0.74969
 U, KJ/KG         -997.05 -1430.50  -997.05
 G, KJ/KG        -25068.2 -22241.3 -25068.2
 S, KJ/(KG)(K)    16.6104  16.6104  16.6104

 M, (1/n)          12.576   12.576   12.576
 Cp, KJ/(KG)(K)    2.8230   2.7384   2.8230
 GAMMAs            1.3058   1.3183   1.3058
 SON VEL,M/SEC     1141.5   1066.4   1141.5
 MACH NUMBER        0.000    1.000      NaN

 TRANSPORT PROPERTIES (GASES ONLY)
   CONDUCTIVITY IN UNITS OF MILLIWATTS/(CM)(K)

 VISC,MILLIPOISE  0.53195  0.48184  0.53195

  WITH FROZEN REACTIONS

 Cp, KJ/(KG)(K)    2.8230   2.7384   2.8230
 CONDUCTIVITY      2.8489   2.5089   2.8489
 PRANDTL NUMBER    0.5271   0.5259   0.5271

 PERFORMANCE PARAMETERS

 Ae/At                      1.0000      NaN
 CSTAR, M/SEC               1491.9   1491.9
 CF                         0.7148      NaN
 Ivac, M/SEC                1875.3      NaN
 Isp, M/SEC                 1066.4      NaN

 MASS FRACTIONS

 *Ar             0.01148   *CO             0.00025   *CO2            0.00004
 *H2             0.08547   H2O             0.23170   NH3             0.00005
 *N2             0.67100

  * THERMODYNAMIC PROPERTIES FITTED TO 20000.K

    PRODUCTS WHICH WERE CONSIDERED BUT WHOSE MASS FRACTIONS
    WERE LESS THAN 5.000000E-06 FOR ALL ASSIGNED CONDITIONS



 NOTE. WEIGHT FRACTION OF FUEL IN TOTAL FUELS AND OF OXIDANT IN TOTAL OXIDANTS






 POINT ITN      T            H           N           O           AR
                    C 





           THEORETICAL ROCKET PERFORMANCE ASSUMING FROZEN COMPOSITION

 Pin =    73.5 PSIA
 CASE = problem1_______

             REACTANT                    WT FRACTION      ENERGY      TEMP
                                          (SEE NOTE)     KJ/KG-MOL      K  
 FUEL        H2                           1.0000000        53.359    300.000
 OXIDANT     Air                          1.0000000       -71.689    300.000

 O/F=    7.97587  %FUEL= 11.140986  R,EQ.RATIO= 4.294982  PHI,EQ.RATIO= 4.300000

                 CHAMBER   THROAT     EXIT
 Pinf/P            1.0000   1.8443   1.0000
 P, BAR            5.0663   2.7470   5.0663
 T, K             1509.29  1304.87  1509.29
 RHO, KG/CU M    5.0774-1 3.1843-1 5.0774-1
 H, KJ/KG         0.74969  -567.85  0.74969
 U, KJ/KG         -997.06 -1430.51  -997.06
 G, KJ/KG        -24559.4 -21801.5 -24559.4
 S, KJ/(KG)(K)    16.2726  16.2726  16.2726

 M, (1/n)          12.577   12.577   12.577
 Cp, KJ/(KG)(K)    2.8231   2.7385   2.8231
 GAMMAs            1.3058   1.3182   1.3058
 SON VEL,M/SEC     1141.5   1066.4   1141.5
 MACH NUMBER        0.000    1.000      NaN

 TRANSPORT PROPERTIES (GASES ONLY)
   CONDUCTIVITY IN UNITS OF MILLIWATTS/(CM)(K)

 VISC,MILLIPOISE  0.53196  0.48186  0.53196

  WITH FROZEN REACTIONS

 Cp, KJ/(KG)(K)    2.8231   2.7385   2.8231
 CONDUCTIVITY      2.8489   2.5089   2.8489
 PRANDTL NUMBER    0.5271   0.5259   0.5271

 PERFORMANCE PARAMETERS

 Ae/At                      1.0000      NaN
 CSTAR, M/SEC               1491.9   1491.9
 CF                         0.7148      NaN
 Ivac, M/SEC                1875.3      NaN
 Isp, M/SEC                 1066.4      NaN

 MASS FRACTIONS

 *Ar             0.01148   *CO             0.00025   *CO2            0.00004
 *H2             0.08547   H2O             0.23170   NH3             0.00009
 *N2             0.67098

  * THERMODYNAMIC PROPERTIES FITTED TO 20000.K

    PRODUCTS WHICH WERE CONSIDERED BUT WHOSE MASS FRACTIONS
    WERE LESS THAN 5.000000E-06 FOR ALL ASSIGNED CONDITIONS



 NOTE. WEIGHT FRACTION OF FUEL IN TOTAL FUELS AND OF OXIDANT IN TOTAL OXIDANTS






 O/F =   7.455701

                       EFFECTIVE FUEL     EFFECTIVE OXIDANT        MIXTURE
 ENTHALPY                  h(2)/R              h(1)/R               h0/R
 (KG-MOL)(K)/KG        0.31835169E+01     -0.29767190E+00      0.11402533E+00

 KG-FORM.WT./KG             bi(2)               bi(1)               b0i
  *H                   0.99212255E+00      0.00000000E+00      0.11733179E+00
  *N                   0.00000000E+00      0.53915890E-01      0.47539613E-01
  *O                   0.00000000E+00      0.14486046E-01      0.12772877E-01
  *Ar                  0.00000000E+00      0.32331996E-03      0.28508304E-03
  *C                   0.00000000E+00      0.11013248E-04      0.97107837E-05

 POINT ITN      T            H           N           O           AR
                    C 





           THEORETICAL ROCKET PERFORMANCE ASSUMING FROZEN COMPOSITION

 Pin =    14.7 PSIA
 CASE = problem1_______

             REACTANT                    WT FRACTION      ENERGY      TEMP
                                          (SEE NOTE)     KJ/KG-MOL      K  
 FUEL        H2                           1.0000000        53.359    300.000
 OXIDANT     Air                          1.0000000       -71.689    300.000

 O/F=    7.45570  %FUEL= 11.826340  R,EQ.RATIO= 4.594526  PHI,EQ.RATIO= 4.600000

                 CHAMBER   THROAT     EXIT
 Pinf/P            1.0000   1.8472   1.0000
 P, BAR            1.0132  0.54854   1.0132
 T, K             1461.25  1260.82  1461.25
 RHO, KG/CU M    1.0081-1 6.3250-2 1.0081-1
 H, KJ/KG         0.94806  -572.73  0.94806
 U, KJ/KG        -1004.18 -1439.99 -1004.18
 G, KJ/KG        -26028.1 -23031.5 -26028.1
 S, KJ/(KG)(K)    17.8128  17.8128  17.8128

 M, (1/n)          12.088   12.088   12.088
 Cp, KJ/(KG)(K)    2.9053   2.8177   2.9053
 GAMMAs            1.3102   1.3230   1.3102
 SON VEL,M/SEC     1147.6   1071.1   1147.6
 MACH NUMBER        0.000    1.000      NaN

 TRANSPORT PROPERTIES (GASES ONLY)
   CONDUCTIVITY IN UNITS OF MILLIWATTS/(CM)(K)

 VISC,MILLIPOISE  0.51595  0.46669  0.51595

  WITH FROZEN REACTIONS

 Cp, KJ/(KG)(K)    2.9053   2.8177   2.9053
 CONDUCTIVITY      2.8664   2.5222   2.8664
 PRANDTL NUMBER    0.5230   0.5214   0.5230

 PERFORMANCE PARAMETERS

 Ae/At                      1.0000      NaN
 CSTAR, M/SEC               1495.6   1495.6
 CF                         0.7162      NaN
 Ivac, M/SEC                1880.8      NaN
 Isp, M/SEC                 1071.1      NaN

 MASS FRACTIONS

 *Ar             0.01139   *CO             0.00024   *CO2            0.00004
 *H2             0.09253   H2O             0.22991   NH3             0.00002
 *N2             0.66585

  * THERMODYNAMIC PROPERTIES FITTED TO 20000.K

    PRODUCTS WHICH WERE CONSIDERED BUT WHOSE MASS FRACTIONS
    WERE LESS THAN 5.000000E-06 FOR ALL ASSIGNED CONDITIONS



 NOTE. WEIGHT FRACTION OF FUEL IN TOTAL FUELS AND OF OXIDANT IN TOTAL OXIDANTS






 POINT ITN      T            H           N           O           AR
                    C 





           THEORETICAL ROCKET PERFORMANCE ASSUMING FROZEN COMPOSITION

 Pin =    44.1 PSIA
 CASE = problem1_______

             REACTANT                    WT FRACTION      ENERGY      TEMP
                                          (SEE NOTE)     KJ/KG-MOL      K  
 FUEL        H2                           1.0000000        53.359    300.000
 OXIDANT     Air                          1.0000000       -71.689    300.000

 O/F=    7.45570  %FUEL= 11.826340  R,EQ.RATIO= 4.594526  PHI,EQ.RATIO= 4.600000

                 CHAMBER   THROAT     EXIT
 Pinf/P            1.0000   1.8472   1.0000
 P, BAR            3.0397   1.6456   3.0397
 T, K             1461.32  1260.89  1461.32
 RHO, KG/CU M    3.0242-1 1.8975-1 3.0242-1
 H, KJ/KG         0.94806  -572.74  0.94806
 U, KJ/KG        -1004.20 -1440.02 -1004.20
 G, KJ/KG        -24925.1 -22080.0 -24925.1
 S, KJ/(KG)(K)    17.0571  17.0571  17.0571

 M, (1/n)          12.088   12.088   12.088
 Cp, KJ/(KG)(K)    2.9054   2.8177   2.9054
 GAMMAs            1.3102   1.3229   1.3102
 SON VEL,M/SEC     1147.6   1071.2   1147.6
 MACH NUMBER        0.000    1.000      NaN

 TRANSPORT PROPERTIES (GASES ONLY)
   CONDUCTIVITY IN UNITS OF MILLIWATTS/(CM)(K)

 VISC,MILLIPOISE  0.51597  0.46671  0.51597

  WITH FROZEN REACTIONS

 Cp, KJ/(KG)(K)    2.9054   2.8177   2.9054
 CONDUCTIVITY      2.8664   2.5222   2.8664
 PRANDTL NUMBER    0.5230   0.5214   0.5230

 PERFORMANCE PARAMETERS

 Ae/At                      1.0000      NaN
 CSTAR, M/SEC               1495.6   1495.6
 CF                         0.7162      NaN
 Ivac, M/SEC                1880.8      NaN
 Isp, M/SEC                 1071.2      NaN

 MASS FRACTIONS

 *Ar             0.01139   *CO             0.00024   *CO2            0.00004
 *H2             0.09252   H2O             0.22991   NH3             0.00007
 *N2             0.66582

  * THERMODYNAMIC PROPERTIES FITTED TO 20000.K

    PRODUCTS WHICH WERE CONSIDERED BUT WHOSE MASS FRACTIONS
    WERE LESS THAN 5.000000E-06 FOR ALL ASSIGNED CONDITIONS



 NOTE. WEIGHT FRACTION OF FUEL IN TOTAL FUELS AND OF OXIDANT IN TOTAL OXIDANTS






 POINT ITN      T            H           N           O           AR
                    C 





           THEORETICAL ROCKET PERFORMANCE ASSUMING FROZEN COMPOSITION

 Pin =    73.5 PSIA
 CASE = problem1_______

             REACTANT                    WT FRACTION      ENERGY      TEMP
                                          (SEE NOTE)     KJ/KG-MOL      K  
 FUEL        H2                           1.0000000        53.359    300.000
 OXIDANT     Air                          1.0000000       -71.689    300.000

 O/F=    7.45570  %FUEL= 11.826340  R,EQ.RATIO= 4.594526  PHI,EQ.RATIO= 4.600000

                 CHAMBER   THROAT     EXIT
 Pinf/P            1.0000   1.8471   1.0000
 P, BAR            5.0663   2.7427   5.0663
 T, K             1461.38  1260.95  1461.38
 RHO, KG/CU M    5.0403-1 3.1624-1 5.0403-1
 H, KJ/KG         0.94806  -572.74  0.94806
 U, KJ/KG        -1004.21 -1440.03 -1004.21
 G, KJ/KG        -24412.6 -21637.9 -24412.6
 S, KJ/(KG)(K)    16.7058  16.7058  16.7058

 M, (1/n)          12.088   12.088   12.088
 Cp, KJ/(KG)(K)    2.9054   2.8177   2.9054
 GAMMAs            1.3102   1.3229   1.3102
 SON VEL,M/SEC     1147.6   1071.2   1147.6
 MACH NUMBER        0.000    1.000      NaN

 TRANSPORT PROPERTIES (GASES ONLY)
   CONDUCTIVITY IN UNITS OF MILLIWATTS/(CM)(K)

 VISC,MILLIPOISE  0.51598  0.46672  0.51598

  WITH FROZEN REACTIONS

 Cp, KJ/(KG)(K)    2.9054   2.8177   2.9054
 CONDUCTIVITY      2.8664   2.5223   2.8664
 PRANDTL NUMBER    0.5230   0.5214   0.5230

 PERFORMANCE PARAMETERS

 Ae/At                     1.00000      NaN
 CSTAR, M/SEC               1495.6   1495.6
 CF                         0.7162      NaN
 Ivac, M/SEC                1880.8      NaN
 Isp, M/SEC                 1071.2      NaN

 MASS FRACTIONS

 *Ar             0.01139   *CO             0.00024   *CO2            0.00004
 *H2             0.09252   H2O             0.22991   NH3             0.00011
 *N2             0.66578

  * THERMODYNAMIC PROPERTIES FITTED TO 20000.K

    PRODUCTS WHICH WERE CONSIDERED BUT WHOSE MASS FRACTIONS
    WERE LESS THAN 5.000000E-06 FOR ALL ASSIGNED CONDITIONS



 NOTE. WEIGHT FRACTION OF FUEL IN TOTAL FUELS AND OF OXIDANT IN TOTAL OXIDANTS



