
 *******************************************************************************

         NASA-GLENN CHEMICAL EQUILIBRIUM PROGRAM CEA2, FEBRUARY 5, 2004
                   BY  BONNIE MCBRIDE AND SANFORD GORDON
      REFS: NASA RP-1311, PART I, 1994 AND NASA RP-1311, PART II, 1996

 *******************************************************************************



  
 ### CEA analysis performed on Wed 29-Oct-2025 23:04:09
  
 # Problem Type: "Assigned Enthalpy and Pressure"
  
 prob case = problem1_______7015 hp
  
 # Pressure (3 values):
 p,atm= 1, 3, 5
  
 # Equivalence based on Fuel/Oxid. wt ratio (Eq 9.19*) (15 values):
 phi = 0.4, 0.7, 1, 1.3, 1.6, 1.9, 2.2, 2.5, 2.8, 3.1, 3.4, 3.7, 4, 4.3, 4.6
  
 # You selected the following fuels and oxidizers:
 reac
 fuel H2                wt%=100.0000  t,k= 400.000
 oxid O2                wt%=100.0000  t,k= 400.000
  
 # You selected these options for output:
 # long version of output
 # Proportions of any products will be expressed as Mass Fractions.
 output massf
 # Heat will be expressed as siunits
 output siunits
 # Transport properties calculated
 output transport
  
  
 # Input prepared by this script:/var/www/sites/cearun/cgi-bin/CEARUN/prepareInpu
 tFile.cgi
  
 ### IMPORTANT:  The following line is the end of your CEA input file!
 end

 OPTIONS: TP=F  HP=T  SP=F  TV=F  UV=F  SV=F  DETN=F  SHOCK=F  REFL=F  INCD=F
 RKT=F  FROZ=F  EQL=F  IONS=F  SIUNIT=T  DEBUGF=F  SHKDBG=F  DETDBG=F  TRNSPT=T

 TRACE= 0.00E+00  S/R= 0.000000E+00  H/R= 0.000000E+00  U/R= 0.000000E+00

 P,BAR =     1.013250     3.039750     5.066250

    REACTANT          WT.FRAC   (ENERGY/R),K   TEMP,K  DENSITY
        EXPLODED FORMULA
 F: H2               1.000000   0.355978E+03   400.00  0.0000
          H  2.00000
 O: O2               1.000000   0.363957E+03   400.00  0.0000
          O  2.00000

  SPECIES BEING CONSIDERED IN THIS SYSTEM
 (CONDENSED PHASE MAY HAVE NAME LISTED SEVERAL TIMES)
  LAST thermo.inp UPDATE:    9/09/04

  g 6/97  *H               g 4/02  HO2              tpis78  *H2            
  g 8/89  H2O              g 6/99  H2O2             g 5/97  *O             
  g 4/02  *OH              tpis89  *O2              g 8/01  O3             
  g11/99  H2O(cr)          g 8/01  H2O(L)           g 8/01  H2O(L)         

 SPECIES WITH TRANSPORT PROPERTIES

        PURE SPECIES

  H                 H2                H2O               O               
  OH                O2              

     BINARY INTERACTIONS

     H               H2              
     H               O               
     H2              H2O             
     H2              O2              
     H2O             O2              
     O               O2              


 O/F =  19.841707

                       EFFECTIVE FUEL     EFFECTIVE OXIDANT        MIXTURE
 ENTHALPY                  h(2)/R              h(1)/R               h0/R
 (KG-MOL)(K)/KG        0.17658671E+03      0.11374097E+02      0.19301116E+02

 KG-FORM.WT./KG             bi(2)               bi(1)               b0i
  *H                   0.99212255E+00      0.00000000E+00      0.47602749E-01
  *O                   0.00000000E+00      0.62502344E-01      0.59503437E-01

 POINT ITN      T            H           O 




         THERMODYNAMIC EQUILIBRIUM COMBUSTION PROPERTIES AT ASSIGNED

                                   PRESSURES

 CASE = problem1_______

             REACTANT                    WT FRACTION      ENERGY      TEMP
                                          (SEE NOTE)     KJ/KG-MOL      K  
 FUEL        H2                           1.0000000      2959.779    400.000
 OXIDANT     O2                           1.0000000      3026.128    400.000

 O/F=   19.84171  %FUEL=  4.798072  R,EQ.RATIO= 0.400000  PHI,EQ.RATIO= 0.400000

 THERMODYNAMIC PROPERTIES

 P, BAR            1.0132   3.0397   5.0663
 T, K             2825.31  2920.00  2963.03
 RHO, KG/CU M    9.7321-2 2.8492-1 4.6979-1
 H, KJ/KG          160.48   160.48   160.48
 U, KJ/KG         -880.66  -906.39  -917.92
 G, KJ/KG        -35455.0 -35471.6 -35444.7
 S, KJ/(KG)(K)    12.6059  12.2028  12.0165

 M, (1/n)          22.563   22.757   22.845
 (dLV/dLP)t      -1.02555 -1.02127 -1.01940
 (dLV/dLT)p        1.5737   1.4672   1.4220
 Cp, KJ/(KG)(K)    6.8608   5.8639   5.4582
 GAMMAs            1.1204   1.1272   1.1305
 SON VEL,M/SEC     1080.1   1096.6   1104.1

 TRANSPORT PROPERTIES (GASES ONLY)
   CONDUCTIVITY IN UNITS OF MILLIWATTS/(CM)(K)

 VISC,MILLIPOISE  0.96480  0.98550  0.99469

  WITH EQUILIBRIUM REACTIONS

 Cp, KJ/(KG)(K)    6.8608   5.8639   5.4582
 CONDUCTIVITY     15.3739  12.7463  11.6640
 PRANDTL NUMBER    0.4306   0.4534   0.4655

  WITH FROZEN REACTIONS

 Cp, KJ/(KG)(K)    2.0428   2.0537   2.0586
 CONDUCTIVITY      2.7622   2.8316   2.8629
 PRANDTL NUMBER    0.7135   0.7148   0.7153

 MASS FRACTIONS

 *H               0.00053  0.00038  0.00032
 HO2              0.00015  0.00024  0.00030
 *H2              0.00162  0.00134  0.00121
 H2O              0.37112  0.37677  0.37947
 H2O2             0.00001  0.00001  0.00002
 *O               0.02576  0.02115  0.01909
 *OH              0.07244  0.06909  0.06712
 *O2              0.52837  0.53102  0.53247

  * THERMODYNAMIC PROPERTIES FITTED TO 20000.K

    PRODUCTS WHICH WERE CONSIDERED BUT WHOSE MASS FRACTIONS
    WERE LESS THAN 5.000000E-06 FOR ALL ASSIGNED CONDITIONS

 O3              H2O(cr)         H2O(L)         

 NOTE. WEIGHT FRACTION OF FUEL IN TOTAL FUELS AND OF OXIDANT IN TOTAL OXIDANTS






 O/F =  11.338118

                       EFFECTIVE FUEL     EFFECTIVE OXIDANT        MIXTURE
 ENTHALPY                  h(2)/R              h(1)/R               h0/R
 (KG-MOL)(K)/KG        0.17658671E+03      0.11374097E+02      0.24764519E+02

 KG-FORM.WT./KG             bi(2)               bi(1)               b0i
  *H                   0.99212255E+00      0.00000000E+00      0.80411172E-01
  *O                   0.00000000E+00      0.62502344E-01      0.57436552E-01

 POINT ITN      T            H           O 




         THERMODYNAMIC EQUILIBRIUM COMBUSTION PROPERTIES AT ASSIGNED

                                   PRESSURES

 CASE = problem1_______

             REACTANT                    WT FRACTION      ENERGY      TEMP
                                          (SEE NOTE)     KJ/KG-MOL      K  
 FUEL        H2                           1.0000000      2959.779    400.000
 OXIDANT     O2                           1.0000000      3026.128    400.000

 O/F=   11.33812  %FUEL=  8.104964  R,EQ.RATIO= 0.700000  PHI,EQ.RATIO= 0.700000

 THERMODYNAMIC PROPERTIES

 P, BAR            1.0132   3.0397   5.0663
 T, K             3035.74  3172.11  3237.11
 RHO, KG/CU M    7.1600-2 2.0830-1 3.4235-1
 H, KJ/KG          205.90   205.90   205.90
 U, KJ/KG        -1209.25 -1253.43 -1273.93
 G, KJ/KG        -47218.9 -47735.4 -47959.4
 S, KJ/(KG)(K)    15.6222  15.1134  14.8791

 M, (1/n)          17.836   18.073   18.188
 (dLV/dLP)t      -1.06119 -1.05433 -1.05110
 (dLV/dLT)p        2.2340   2.0554   1.9759
 Cp, KJ/(KG)(K)   14.3521  12.1871  11.2777
 GAMMAs            1.1122   1.1175   1.1200
 SON VEL,M/SEC     1254.6   1277.0   1287.4

 TRANSPORT PROPERTIES (GASES ONLY)
   CONDUCTIVITY IN UNITS OF MILLIWATTS/(CM)(K)

 VISC,MILLIPOISE   1.0103   1.0427   1.0578

  WITH EQUILIBRIUM REACTIONS

 Cp, KJ/(KG)(K)   14.3521  12.1871  11.2777
 CONDUCTIVITY     34.5167  29.6891  27.5828
 PRANDTL NUMBER    0.4201   0.4280   0.4325

  WITH FROZEN REACTIONS

 Cp, KJ/(KG)(K)    2.6338   2.6508   2.6586
 CONDUCTIVITY      3.7608   3.8785   3.9335
 PRANDTL NUMBER    0.7076   0.7126   0.7149

 MASS FRACTIONS

 *H               0.00267  0.00216  0.00194
 HO2              0.00015  0.00025  0.00032
 *H2              0.00825  0.00748  0.00710
 H2O              0.55968  0.57110  0.57685
 H2O2             0.00001  0.00002  0.00002
 *O               0.04328  0.03808  0.03561
 *OH              0.12653  0.12640  0.12576
 *O2              0.25943  0.25451  0.25241

  * THERMODYNAMIC PROPERTIES FITTED TO 20000.K

    PRODUCTS WHICH WERE CONSIDERED BUT WHOSE MASS FRACTIONS
    WERE LESS THAN 5.000000E-06 FOR ALL ASSIGNED CONDITIONS

 O3              H2O(cr)         H2O(L)         

 NOTE. WEIGHT FRACTION OF FUEL IN TOTAL FUELS AND OF OXIDANT IN TOTAL OXIDANTS






 O/F =   7.936683

                       EFFECTIVE FUEL     EFFECTIVE OXIDANT        MIXTURE
 ENTHALPY                  h(2)/R              h(1)/R               h0/R
 (KG-MOL)(K)/KG        0.17658671E+03      0.11374097E+02      0.29861115E+02

 KG-FORM.WT./KG             bi(2)               bi(1)               b0i
  *H                   0.99212255E+00      0.00000000E+00      0.11101687E+00
  *O                   0.00000000E+00      0.62502344E-01      0.55508435E-01

 POINT ITN      T            H           O 




         THERMODYNAMIC EQUILIBRIUM COMBUSTION PROPERTIES AT ASSIGNED

                                   PRESSURES

 CASE = problem1_______

             REACTANT                    WT FRACTION      ENERGY      TEMP
                                          (SEE NOTE)     KJ/KG-MOL      K  
 FUEL        H2                           1.0000000      2959.779    400.000
 OXIDANT     O2                           1.0000000      3026.128    400.000

 O/F=    7.93668  %FUEL= 11.189834  R,EQ.RATIO= 1.000000  PHI,EQ.RATIO= 1.000000

 THERMODYNAMIC PROPERTIES

 P, BAR            1.0132   3.0397   5.0663
 T, K             3086.89  3235.79  3307.76
 RHO, KG/CU M    5.8292-2 1.6926-1 2.7792-1
 H, KJ/KG          248.28   248.28   248.28
 U, KJ/KG        -1489.95 -1547.60 -1574.63
 G, KJ/KG        -56295.4 -57035.4 -57375.0
 S, KJ/(KG)(K)    18.3174  17.7032  17.4206

 M, (1/n)          14.766   14.981   15.087
 (dLV/dLP)t      -1.07834 -1.07158 -1.06836
 (dLV/dLT)p        2.5372   2.3469   2.2616
 Cp, KJ/(KG)(K)   20.2841  17.3703  16.1376
 GAMMAs            1.1116   1.1166   1.1189
 SON VEL,M/SEC     1390.0   1416.1   1428.2

 TRANSPORT PROPERTIES (GASES ONLY)
   CONDUCTIVITY IN UNITS OF MILLIWATTS/(CM)(K)

 VISC,MILLIPOISE   1.0021   1.0380   1.0551

  WITH EQUILIBRIUM REACTIONS

 Cp, KJ/(KG)(K)   20.2841  17.3703  16.1376
 CONDUCTIVITY     43.2469  37.6606  35.2131
 PRANDTL NUMBER    0.4700   0.4788   0.4835

  WITH FROZEN REACTIONS

 Cp, KJ/(KG)(K)    3.1757   3.1973   3.2072
 CONDUCTIVITY      4.5729   4.7225   4.7928
 PRANDTL NUMBER    0.6959   0.7028   0.7061

 MASS FRACTIONS

 *H               0.00540  0.00458  0.00421
 HO2              0.00009  0.00015  0.00018
 *H2              0.02064  0.01978  0.01932
 H2O              0.69730  0.71241  0.72020
 H2O2             0.00001  0.00001  0.00002
 *O               0.03635  0.03169  0.02949
 *OH              0.13210  0.13179  0.13105
 *O2              0.10812  0.09959  0.09553

  * THERMODYNAMIC PROPERTIES FITTED TO 20000.K

    PRODUCTS WHICH WERE CONSIDERED BUT WHOSE MASS FRACTIONS
    WERE LESS THAN 5.000000E-06 FOR ALL ASSIGNED CONDITIONS

 O3              H2O(cr)         H2O(L)         

 NOTE. WEIGHT FRACTION OF FUEL IN TOTAL FUELS AND OF OXIDANT IN TOTAL OXIDANTS






 O/F =   6.105141

                       EFFECTIVE FUEL     EFFECTIVE OXIDANT        MIXTURE
 ENTHALPY                  h(2)/R              h(1)/R               h0/R
 (KG-MOL)(K)/KG        0.17658671E+03      0.11374097E+02      0.34626643E+02

 KG-FORM.WT./KG             bi(2)               bi(1)               b0i
  *H                   0.99212255E+00      0.00000000E+00      0.13963447E+00
  *O                   0.00000000E+00      0.62502344E-01      0.53705566E-01

 POINT ITN      T            H           O 




         THERMODYNAMIC EQUILIBRIUM COMBUSTION PROPERTIES AT ASSIGNED

                                   PRESSURES

 CASE = problem1_______

             REACTANT                    WT FRACTION      ENERGY      TEMP
                                          (SEE NOTE)     KJ/KG-MOL      K  
 FUEL        H2                           1.0000000      2959.779    400.000
 OXIDANT     O2                           1.0000000      3026.128    400.000

 O/F=    6.10514  %FUEL= 14.074317  R,EQ.RATIO= 1.300000  PHI,EQ.RATIO= 1.300000

 THERMODYNAMIC PROPERTIES

 P, BAR            1.0132   3.0397   5.0663
 T, K             3060.39  3202.84  3271.01
 RHO, KG/CU M    5.0296-2 1.4616-1 2.4009-1
 H, KJ/KG          287.90   287.90   287.90
 U, KJ/KG        -1726.67 -1791.87 -1822.22
 G, KJ/KG        -63245.7 -63902.4 -64187.2
 S, KJ/(KG)(K)    20.7600  20.0417  19.7110

 M, (1/n)          12.631   12.804   12.889
 (dLV/dLP)t      -1.06606 -1.05882 -1.05535
 (dLV/dLT)p        2.3034   2.1149   2.0300
 Cp, KJ/(KG)(K)   20.7152  17.5169  16.1634
 GAMMAs            1.1142   1.1198   1.1225
 SON VEL,M/SEC     1498.2   1526.1   1539.0

 TRANSPORT PROPERTIES (GASES ONLY)
   CONDUCTIVITY IN UNITS OF MILLIWATTS/(CM)(K)

 VISC,MILLIPOISE  0.96678  0.99998   1.0156

  WITH EQUILIBRIUM REACTIONS

 Cp, KJ/(KG)(K)   20.7152  17.5169  16.1634
 CONDUCTIVITY     41.7151  35.8378  33.2594
 PRANDTL NUMBER    0.4801   0.4888   0.4936

  WITH FROZEN REACTIONS

 Cp, KJ/(KG)(K)    3.6722   3.6969   3.7082
 CONDUCTIVITY      5.2460   5.4142   5.4924
 PRANDTL NUMBER    0.6767   0.6828   0.6857

 MASS FRACTIONS

 *H               0.00742  0.00633  0.00584
 HO2              0.00004  0.00006  0.00007
 *H2              0.03890  0.03853  0.03831
 H2O              0.78728  0.80218  0.80981
 H2O2             0.00000  0.00001  0.00001
 *O               0.02144  0.01764  0.01590
 *OH              0.10666  0.10313  0.10078
 *O2              0.03825  0.03212  0.02928

  * THERMODYNAMIC PROPERTIES FITTED TO 20000.K

    PRODUCTS WHICH WERE CONSIDERED BUT WHOSE MASS FRACTIONS
    WERE LESS THAN 5.000000E-06 FOR ALL ASSIGNED CONDITIONS

 O3              H2O(cr)         H2O(L)         

 NOTE. WEIGHT FRACTION OF FUEL IN TOTAL FUELS AND OF OXIDANT IN TOTAL OXIDANTS






 O/F =   4.960427

                       EFFECTIVE FUEL     EFFECTIVE OXIDANT        MIXTURE
 ENTHALPY                  h(2)/R              h(1)/R               h0/R
 (KG-MOL)(K)/KG        0.17658671E+03      0.11374097E+02      0.39092349E+02

 KG-FORM.WT./KG             bi(2)               bi(1)               b0i
  *H                   0.99212255E+00      0.00000000E+00      0.16645160E+00
  *O                   0.00000000E+00      0.62502344E-01      0.52016124E-01

 POINT ITN      T            H           O 




         THERMODYNAMIC EQUILIBRIUM COMBUSTION PROPERTIES AT ASSIGNED

                                   PRESSURES

 CASE = problem1_______

             REACTANT                    WT FRACTION      ENERGY      TEMP
                                          (SEE NOTE)     KJ/KG-MOL      K  
 FUEL        H2                           1.0000000      2959.779    400.000
 OXIDANT     O2                           1.0000000      3026.128    400.000

 O/F=    4.96043  %FUEL= 16.777322  R,EQ.RATIO= 1.600000  PHI,EQ.RATIO= 1.600000

 THERMODYNAMIC PROPERTIES

 P, BAR            1.0132   3.0397   5.0663
 T, K             2986.69  3111.87  3170.26
 RHO, KG/CU M    4.5172-2 1.3161-1 2.1651-1
 H, KJ/KG          325.03   325.03   325.03
 U, KJ/KG        -1918.05 -1984.60 -2014.92
 G, KJ/KG        -68336.7 -68662.1 -68757.8
 S, KJ/(KG)(K)    22.9893  22.1690  21.7909

 M, (1/n)          11.071   11.202   11.265
 (dLV/dLP)t      -1.04409 -1.03747 -1.03439
 (dLV/dLT)p        1.8837   1.7241   1.6537
 Cp, KJ/(KG)(K)   17.5264  14.6194  13.4091
 GAMMAs            1.1210   1.1280   1.1314
 SON VEL,M/SEC     1585.7   1614.1   1627.1

 TRANSPORT PROPERTIES (GASES ONLY)
   CONDUCTIVITY IN UNITS OF MILLIWATTS/(CM)(K)

 VISC,MILLIPOISE  0.91872  0.94649  0.95920

  WITH EQUILIBRIUM REACTIONS

 Cp, KJ/(KG)(K)   17.5264  14.6194  13.4091
 CONDUCTIVITY     36.3651  30.7297  28.2842
 PRANDTL NUMBER    0.4428   0.4503   0.4547

  WITH FROZEN REACTIONS

 Cp, KJ/(KG)(K)    4.1233   4.1492   4.1609
 CONDUCTIVITY      5.7659   5.9351   6.0120
 PRANDTL NUMBER    0.6570   0.6617   0.6639

 MASS FRACTIONS

 *H               0.00801  0.00669  0.00609
 HO2              0.00002  0.00002  0.00002
 *H2              0.06196  0.06228  0.06240
 H2O              0.83555  0.84747  0.85343
 *O               0.00995  0.00754  0.00650
 *OH              0.07263  0.06697  0.06377
 *O2              0.01188  0.00902  0.00778

  * THERMODYNAMIC PROPERTIES FITTED TO 20000.K

    PRODUCTS WHICH WERE CONSIDERED BUT WHOSE MASS FRACTIONS
    WERE LESS THAN 5.000000E-06 FOR ALL ASSIGNED CONDITIONS

 H2O2            O3              H2O(cr)         H2O(L)         

 NOTE. WEIGHT FRACTION OF FUEL IN TOTAL FUELS AND OF OXIDANT IN TOTAL OXIDANTS






 O/F =   4.177201

                       EFFECTIVE FUEL     EFFECTIVE OXIDANT        MIXTURE
 ENTHALPY                  h(2)/R              h(1)/R               h0/R
 (KG-MOL)(K)/KG        0.17658671E+03      0.11374097E+02      0.43285664E+02

 KG-FORM.WT./KG             bi(2)               bi(1)               b0i
  *H                   0.99212255E+00      0.00000000E+00      0.19163298E+00
  *O                   0.00000000E+00      0.62502344E-01      0.50429732E-01

 POINT ITN      T            H           O 




         THERMODYNAMIC EQUILIBRIUM COMBUSTION PROPERTIES AT ASSIGNED

                                   PRESSURES

 CASE = problem1_______

             REACTANT                    WT FRACTION      ENERGY      TEMP
                                          (SEE NOTE)     KJ/KG-MOL      K  
 FUEL        H2                           1.0000000      2959.779    400.000
 OXIDANT     O2                           1.0000000      3026.128    400.000

 O/F=    4.17720  %FUEL= 19.315455  R,EQ.RATIO= 1.900000  PHI,EQ.RATIO= 1.900000

 THERMODYNAMIC PROPERTIES

 P, BAR            1.0132   3.0397   5.0663
 T, K             2887.64  2992.01  3039.06
 RHO, KG/CU M    4.1734-2 1.2202-1 2.0110-1
 H, KJ/KG          359.90   359.90   359.90
 U, KJ/KG        -2067.96 -2131.30 -2159.31
 G, KJ/KG        -71930.6 -71793.3 -71638.1
 S, KJ/(KG)(K)    25.0344  24.1153  23.6909

 M, (1/n)           9.889    9.986   10.030
 (dLV/dLP)t      -1.02802 -1.02282 -1.02048
 (dLV/dLT)p        1.5722   1.4513   1.3993
 Cp, KJ/(KG)(K)   14.4383  12.0532  11.0804
 GAMMAs            1.1311   1.1398   1.1442
 SON VEL,M/SEC     1657.2   1685.1   1697.8

 TRANSPORT PROPERTIES (GASES ONLY)
   CONDUCTIVITY IN UNITS OF MILLIWATTS/(CM)(K)

 VISC,MILLIPOISE  0.86721  0.88936  0.89917

  WITH EQUILIBRIUM REACTIONS

 Cp, KJ/(KG)(K)   14.4383  12.0532  11.0804
 CONDUCTIVITY     30.5171  25.4042  23.2282
 PRANDTL NUMBER    0.4103   0.4220   0.4289

  WITH FROZEN REACTIONS

 Cp, KJ/(KG)(K)    4.5314   4.5569   4.5681
 CONDUCTIVITY      6.1267   6.2821   6.3505
 PRANDTL NUMBER    0.6414   0.6451   0.6468

 MASS FRACTIONS

 *H               0.00734  0.00592  0.00529
 HO2              0.00000  0.00001  0.00001
 *H2              0.08772  0.08853  0.08887
 H2O              0.85306  0.86155  0.86564
 *O               0.00398  0.00275  0.00226
 *OH              0.04444  0.03888  0.03599
 *O2              0.00345  0.00237  0.00194

  * THERMODYNAMIC PROPERTIES FITTED TO 20000.K

    PRODUCTS WHICH WERE CONSIDERED BUT WHOSE MASS FRACTIONS
    WERE LESS THAN 5.000000E-06 FOR ALL ASSIGNED CONDITIONS

 H2O2            O3              H2O(cr)         H2O(L)         

 NOTE. WEIGHT FRACTION OF FUEL IN TOTAL FUELS AND OF OXIDANT IN TOTAL OXIDANTS






 O/F =   3.607583

                       EFFECTIVE FUEL     EFFECTIVE OXIDANT        MIXTURE
 ENTHALPY                  h(2)/R              h(1)/R               h0/R
 (KG-MOL)(K)/KG        0.17658671E+03      0.11374097E+02      0.47230773E+02

 KG-FORM.WT./KG             bi(2)               bi(1)               b0i
  *H                   0.99212255E+00      0.00000000E+00      0.21532385E+00
  *O                   0.00000000E+00      0.62502344E-01      0.48937240E-01

 POINT ITN      T            H           O 




         THERMODYNAMIC EQUILIBRIUM COMBUSTION PROPERTIES AT ASSIGNED

                                   PRESSURES

 CASE = problem1_______

             REACTANT                    WT FRACTION      ENERGY      TEMP
                                          (SEE NOTE)     KJ/KG-MOL      K  
 FUEL        H2                           1.0000000      2959.779    400.000
 OXIDANT     O2                           1.0000000      3026.128    400.000

 O/F=    3.60758  %FUEL= 21.703353  R,EQ.RATIO= 2.200000  PHI,EQ.RATIO= 2.200000

 THERMODYNAMIC PROPERTIES

 P, BAR            1.0132   3.0397   5.0663
 T, K             2777.91  2861.42  2897.54
 RHO, KG/CU M    3.9336-2 1.1545-1 1.9066-1
 H, KJ/KG          392.70   392.70   392.70
 U, KJ/KG        -2183.20 -2240.23 -2264.54
 G, KJ/KG        -74386.5 -73730.9 -73307.1
 S, KJ/(KG)(K)    26.9193  25.9045  25.4353

 M, (1/n)           8.967    9.036    9.066
 (dLV/dLP)t      -1.01788 -1.01393 -1.01222
 (dLV/dLT)p        1.3738   1.2834   1.2458
 Cp, KJ/(KG)(K)   12.2052  10.2750   9.5059
 GAMMAs            1.1435   1.1542   1.1594
 SON VEL,M/SEC     1716.3   1743.2   1755.2

 TRANSPORT PROPERTIES (GASES ONLY)
   CONDUCTIVITY IN UNITS OF MILLIWATTS/(CM)(K)

 VISC,MILLIPOISE  0.81703  0.83413  0.84141

  WITH EQUILIBRIUM REACTIONS

 Cp, KJ/(KG)(K)   12.2052  10.2750   9.5059
 CONDUCTIVITY     24.9968  20.5505  18.7112
 PRANDTL NUMBER    0.3989   0.4171   0.4275

  WITH FROZEN REACTIONS

 Cp, KJ/(KG)(K)    4.9011   4.9250   4.9350
 CONDUCTIVITY      6.3492   6.4825   6.5390
 PRANDTL NUMBER    0.6307   0.6337   0.6350

 MASS FRACTIONS

 *H               0.00603  0.00465  0.00407
 *H2              0.11417  0.11517  0.11559
 H2O              0.85184  0.85753  0.86016
 *O               0.00146  0.00092  0.00071
 *OH              0.02552  0.02111  0.01899
 *O2              0.00098  0.00061  0.00047

  * THERMODYNAMIC PROPERTIES FITTED TO 20000.K

    PRODUCTS WHICH WERE CONSIDERED BUT WHOSE MASS FRACTIONS
    WERE LESS THAN 5.000000E-06 FOR ALL ASSIGNED CONDITIONS

 HO2             H2O2            O3              H2O(cr)         H2O(L)         

 NOTE. WEIGHT FRACTION OF FUEL IN TOTAL FUELS AND OF OXIDANT IN TOTAL OXIDANTS






 O/F =   3.174673

                       EFFECTIVE FUEL     EFFECTIVE OXIDANT        MIXTURE
 ENTHALPY                  h(2)/R              h(1)/R               h0/R
 (KG-MOL)(K)/KG        0.17658671E+03      0.11374097E+02      0.50949079E+02

 KG-FORM.WT./KG             bi(2)               bi(1)               b0i
  *H                   0.99212255E+00      0.00000000E+00      0.23765275E+00
  *O                   0.00000000E+00      0.62502344E-01      0.47530550E-01

 POINT ITN      T            H           O 




         THERMODYNAMIC EQUILIBRIUM COMBUSTION PROPERTIES AT ASSIGNED

                                   PRESSURES

 CASE = problem1_______

             REACTANT                    WT FRACTION      ENERGY      TEMP
                                          (SEE NOTE)     KJ/KG-MOL      K  
 FUEL        H2                           1.0000000      2959.779    400.000
 OXIDANT     O2                           1.0000000      3026.128    400.000

 O/F=    3.17467  %FUEL= 23.953971  R,EQ.RATIO= 2.500000  PHI,EQ.RATIO= 2.500000

 THERMODYNAMIC PROPERTIES

 P, BAR            1.0132   3.0397   5.0663
 T, K             2664.80  2728.73  2755.07
 RHO, KG/CU M    3.7624-2 1.1087-1 1.8346-1
 H, KJ/KG          423.62   423.62   423.62
 U, KJ/KG        -2269.50 -2318.04 -2337.83
 G, KJ/KG        -75957.6 -74769.3 -74083.0
 S, KJ/(KG)(K)    28.6630  27.5560  27.0434

 M, (1/n)           8.227    8.275    8.295
 (dLV/dLP)t      -1.01137 -1.00843 -1.00722
 (dLV/dLT)p        1.2444   1.1774   1.1505
 Cp, KJ/(KG)(K)   10.5881   9.0367   8.4369
 GAMMAs            1.1580   1.1706   1.1765
 SON VEL,M/SEC     1766.0   1791.4   1802.5

 TRANSPORT PROPERTIES (GASES ONLY)
   CONDUCTIVITY IN UNITS OF MILLIWATTS/(CM)(K)

 VISC,MILLIPOISE  0.76988  0.78261  0.78779

  WITH EQUILIBRIUM REACTIONS

 Cp, KJ/(KG)(K)   10.5881   9.0367   8.4369
 CONDUCTIVITY     20.1202  16.4395  14.9731
 PRANDTL NUMBER    0.4051   0.4302   0.4439

  WITH FROZEN REACTIONS

 Cp, KJ/(KG)(K)    5.2371   5.2581   5.2666
 CONDUCTIVITY      6.4642   6.5720   6.6158
 PRANDTL NUMBER    0.6237   0.6261   0.6271

 MASS FRACTIONS

 *H               0.00458  0.00337  0.00287
 *H2              0.14008  0.14106  0.14146
 H2O              0.84053  0.84419  0.84579
 *O               0.00050  0.00028  0.00021
 *OH              0.01404  0.01094  0.00955
 *O2              0.00027  0.00015  0.00011

  * THERMODYNAMIC PROPERTIES FITTED TO 20000.K

    PRODUCTS WHICH WERE CONSIDERED BUT WHOSE MASS FRACTIONS
    WERE LESS THAN 5.000000E-06 FOR ALL ASSIGNED CONDITIONS

 HO2             H2O2            O3              H2O(cr)         H2O(L)         

 NOTE. WEIGHT FRACTION OF FUEL IN TOTAL FUELS AND OF OXIDANT IN TOTAL OXIDANTS






 O/F =   2.834530

                       EFFECTIVE FUEL     EFFECTIVE OXIDANT        MIXTURE
 ENTHALPY                  h(2)/R              h(1)/R               h0/R
 (KG-MOL)(K)/KG        0.17658671E+03      0.11374097E+02      0.54459594E+02

 KG-FORM.WT./KG             bi(2)               bi(1)               b0i
  *H                   0.99212255E+00      0.00000000E+00      0.25873384E+00
  *O                   0.00000000E+00      0.62502344E-01      0.46202471E-01

 POINT ITN      T            H           O 




         THERMODYNAMIC EQUILIBRIUM COMBUSTION PROPERTIES AT ASSIGNED

                                   PRESSURES

 CASE = problem1_______

             REACTANT                    WT FRACTION      ENERGY      TEMP
                                          (SEE NOTE)     KJ/KG-MOL      K  
 FUEL        H2                           1.0000000      2959.779    400.000
 OXIDANT     O2                           1.0000000      3026.128    400.000

 O/F=    2.83453  %FUEL= 26.078818  R,EQ.RATIO= 2.800000  PHI,EQ.RATIO= 2.800000

 THERMODYNAMIC PROPERTIES

 P, BAR            1.0132   3.0397   5.0663
 T, K             2551.50  2597.99  2616.15
 RHO, KG/CU M    3.6400-2 1.0770-1 1.7854-1
 H, KJ/KG          452.80   452.80   452.80
 U, KJ/KG        -2330.87 -2369.73 -2384.79
 G, KJ/KG        -76810.1 -75110.7 -74188.2
 S, KJ/(KG)(K)    30.2814  29.0854  28.5309

 M, (1/n)           7.621    7.653    7.666
 (dLV/dLP)t      -1.00709 -1.00500 -1.00418
 (dLV/dLT)p        1.1576   1.1092   1.0907
 Cp, KJ/(KG)(K)    9.3885   8.1711   7.7176
 GAMMAs            1.1746   1.1885   1.1948
 SON VEL,M/SEC     1808.2   1831.6   1841.3

 TRANSPORT PROPERTIES (GASES ONLY)
   CONDUCTIVITY IN UNITS OF MILLIWATTS/(CM)(K)

 VISC,MILLIPOISE  0.72613  0.73518  0.73868

  WITH EQUILIBRIUM REACTIONS

 Cp, KJ/(KG)(K)    9.3885   8.1711   7.7176
 CONDUCTIVITY     16.0736  13.1938  12.0966
 PRANDTL NUMBER    0.4241   0.4553   0.4713

  WITH FROZEN REACTIONS

 Cp, KJ/(KG)(K)    5.5427   5.5602   5.5670
 CONDUCTIVITY      6.4991   6.5814   6.6131
 PRANDTL NUMBER    0.6193   0.6211   0.6218

 MASS FRACTIONS

 *H               0.00326  0.00228  0.00191
 *H2              0.16486  0.16570  0.16603
 H2O              0.82421  0.82644  0.82736
 *O               0.00016  0.00008  0.00006
 *OH              0.00743  0.00545  0.00462
 *O2              0.00007  0.00004  0.00003

  * THERMODYNAMIC PROPERTIES FITTED TO 20000.K

    PRODUCTS WHICH WERE CONSIDERED BUT WHOSE MASS FRACTIONS
    WERE LESS THAN 5.000000E-06 FOR ALL ASSIGNED CONDITIONS

 HO2             H2O2            O3              H2O(cr)         H2O(L)         

 NOTE. WEIGHT FRACTION OF FUEL IN TOTAL FUELS AND OF OXIDANT IN TOTAL OXIDANTS






 O/F =   2.560220

                       EFFECTIVE FUEL     EFFECTIVE OXIDANT        MIXTURE
 ENTHALPY                  h(2)/R              h(1)/R               h0/R
 (KG-MOL)(K)/KG        0.17658671E+03      0.11374097E+02      0.57779263E+02

 KG-FORM.WT./KG             bi(2)               bi(1)               b0i
  *H                   0.99212255E+00      0.00000000E+00      0.27866887E+00
  *O                   0.00000000E+00      0.62502344E-01      0.44946592E-01

 POINT ITN      T            H           O 




         THERMODYNAMIC EQUILIBRIUM COMBUSTION PROPERTIES AT ASSIGNED

                                   PRESSURES

 CASE = problem1_______

             REACTANT                    WT FRACTION      ENERGY      TEMP
                                          (SEE NOTE)     KJ/KG-MOL      K  
 FUEL        H2                           1.0000000      2959.779    400.000
 OXIDANT     O2                           1.0000000      3026.128    400.000

 O/F=    2.56022  %FUEL= 28.088150  R,EQ.RATIO= 3.100000  PHI,EQ.RATIO= 3.100000

 THERMODYNAMIC PROPERTIES

 P, BAR            1.0132   3.0397   5.0663
 T, K             2439.77  2471.75  2483.57
 RHO, KG/CU M    3.5541-2 1.0554-1 1.7525-1
 H, KJ/KG          480.41   480.41   480.41
 U, KJ/KG        -2370.57 -2399.73 -2410.46
 G, KJ/KG        -77073.0 -74921.1 -73804.4
 S, KJ/(KG)(K)    31.7872  30.5053  29.9104

 M, (1/n)           7.115    7.136    7.143
 (dLV/dLP)t      -1.00431 -1.00289 -1.00237
 (dLV/dLT)p        1.0994   1.0659   1.0536
 Cp, KJ/(KG)(K)    8.5114   7.5918   7.2629
 GAMMAs            1.1928   1.2070   1.2129
 SON VEL,M/SEC     1844.1   1864.5   1872.5

 TRANSPORT PROPERTIES (GASES ONLY)
   CONDUCTIVITY IN UNITS OF MILLIWATTS/(CM)(K)

 VISC,MILLIPOISE  0.68570  0.69183  0.69408

  WITH EQUILIBRIUM REACTIONS

 Cp, KJ/(KG)(K)    8.5114   7.5918   7.2629
 CONDUCTIVITY     12.9138  10.7913  10.0198
 PRANDTL NUMBER    0.4519   0.4867   0.5031

  WITH FROZEN REACTIONS

 Cp, KJ/(KG)(K)    5.8209   5.8346   5.8396
 CONDUCTIVITY      6.4759   6.5350   6.5566
 PRANDTL NUMBER    0.6163   0.6177   0.6182

 MASS FRACTIONS

 *H               0.00220  0.00147  0.00120
 *H2              0.18831  0.18896  0.18920
 H2O              0.80563  0.80691  0.80740
 *O               0.00005  0.00002  0.00002
 *OH              0.00379  0.00262  0.00217
 *O2              0.00002  0.00001  0.00001

  * THERMODYNAMIC PROPERTIES FITTED TO 20000.K

    PRODUCTS WHICH WERE CONSIDERED BUT WHOSE MASS FRACTIONS
    WERE LESS THAN 5.000000E-06 FOR ALL ASSIGNED CONDITIONS

 HO2             H2O2            O3              H2O(cr)         H2O(L)         

 NOTE. WEIGHT FRACTION OF FUEL IN TOTAL FUELS AND OF OXIDANT IN TOTAL OXIDANTS






 O/F =   2.334318

                       EFFECTIVE FUEL     EFFECTIVE OXIDANT        MIXTURE
 ENTHALPY                  h(2)/R              h(1)/R               h0/R
 (KG-MOL)(K)/KG        0.17658671E+03      0.11374097E+02      0.60923237E+02

 KG-FORM.WT./KG             bi(2)               bi(1)               b0i
  *H                   0.99212255E+00      0.00000000E+00      0.29754883E+00
  *O                   0.00000000E+00      0.62502344E-01      0.43757181E-01

 POINT ITN      T            H           O 




         THERMODYNAMIC EQUILIBRIUM COMBUSTION PROPERTIES AT ASSIGNED

                                   PRESSURES

 CASE = problem1_______

             REACTANT                    WT FRACTION      ENERGY      TEMP
                                          (SEE NOTE)     KJ/KG-MOL      K  
 FUEL        H2                           1.0000000      2959.779    400.000
 OXIDANT     O2                           1.0000000      3026.128    400.000

 O/F=    2.33432  %FUEL= 29.991137  R,EQ.RATIO= 3.400000  PHI,EQ.RATIO= 3.400000

 THERMODYNAMIC PROPERTIES

 P, BAR            1.0132   3.0397   5.0663
 T, K             2331.20  2352.04  2359.36
 RHO, KG/CU M    3.4959-2 1.0414-1 1.7313-1
 H, KJ/KG          506.55   506.55   506.55
 U, KJ/KG        -2391.88 -2412.45 -2419.66
 G, KJ/KG        -76869.0 -74351.0 -73089.0
 S, KJ/(KG)(K)    33.1913  31.8267  31.1929

 M, (1/n)           6.687    6.700    6.704
 (dLV/dLP)t      -1.00255 -1.00164 -1.00132
 (dLV/dLT)p        1.0611   1.0390   1.0312
 Cp, KJ/(KG)(K)    7.9036   7.2386   7.0100
 GAMMAs            1.2115   1.2246   1.2298
 SON VEL,M/SEC     1873.9   1890.7   1897.0

 TRANSPORT PROPERTIES (GASES ONLY)
   CONDUCTIVITY IN UNITS OF MILLIWATTS/(CM)(K)

 VISC,MILLIPOISE  0.64851  0.65245  0.65383

  WITH EQUILIBRIUM REACTIONS

 Cp, KJ/(KG)(K)    7.9036   7.2386   7.0100
 CONDUCTIVITY     10.5819   9.1050   8.5915
 PRANDTL NUMBER    0.4844   0.5187   0.5335

  WITH FROZEN REACTIONS

 Cp, KJ/(KG)(K)    6.0744   6.0844   6.0879
 CONDUCTIVITY      6.4117   6.4517   6.4657
 PRANDTL NUMBER    0.6144   0.6153   0.6156

 MASS FRACTIONS

 *H               0.00142  0.00091  0.00073
 *H2              0.21039  0.21086  0.21103
 H2O              0.78629  0.78699  0.78724
 *O               0.00001  0.00001  0.00000
 *OH              0.00187  0.00123  0.00100
 *O2              0.00001  0.00000  0.00000

  * THERMODYNAMIC PROPERTIES FITTED TO 20000.K

    PRODUCTS WHICH WERE CONSIDERED BUT WHOSE MASS FRACTIONS
    WERE LESS THAN 5.000000E-06 FOR ALL ASSIGNED CONDITIONS

 HO2             H2O2            O3              H2O(cr)         H2O(L)         

 NOTE. WEIGHT FRACTION OF FUEL IN TOTAL FUELS AND OF OXIDANT IN TOTAL OXIDANTS






 O/F =   2.145049

                       EFFECTIVE FUEL     EFFECTIVE OXIDANT        MIXTURE
 ENTHALPY                  h(2)/R              h(1)/R               h0/R
 (KG-MOL)(K)/KG        0.17658671E+03      0.11374097E+02      0.63905104E+02

 KG-FORM.WT./KG             bi(2)               bi(1)               b0i
  *H                   0.99212255E+00      0.00000000E+00      0.31545532E+00
  *O                   0.00000000E+00      0.62502344E-01      0.42629097E-01

 POINT ITN      T            H           O 




         THERMODYNAMIC EQUILIBRIUM COMBUSTION PROPERTIES AT ASSIGNED

                                   PRESSURES

 CASE = problem1_______

             REACTANT                    WT FRACTION      ENERGY      TEMP
                                          (SEE NOTE)     KJ/KG-MOL      K  
 FUEL        H2                           1.0000000      2959.779    400.000
 OXIDANT     O2                           1.0000000      3026.128    400.000

 O/F=    2.14505  %FUEL= 31.796003  R,EQ.RATIO= 3.700000  PHI,EQ.RATIO= 3.700000

 THERMODYNAMIC PROPERTIES

 P, BAR            1.0132   3.0397   5.0663
 T, K             2227.37  2240.34  2244.71
 RHO, KG/CU M    3.4586-2 1.0327-1 1.7185-1
 H, KJ/KG          531.34   531.34   531.34
 U, KJ/KG        -2398.34 -2412.10 -2416.73
 G, KJ/KG        -76319.8 -73531.7 -72170.1
 S, KJ/(KG)(K)    34.5030  33.0589  32.3879

 M, (1/n)           6.321    6.328    6.331
 (dLV/dLP)t      -1.00148 -1.00092 -1.00073
 (dLV/dLT)p        1.0368   1.0227   1.0180
 Cp, KJ/(KG)(K)    7.5183   7.0569   6.9034
 GAMMAs            1.2294   1.2404   1.2445
 SON VEL,M/SEC     1897.8   1910.8   1915.4

 TRANSPORT PROPERTIES (GASES ONLY)
   CONDUCTIVITY IN UNITS OF MILLIWATTS/(CM)(K)

 VISC,MILLIPOISE  0.61446  0.61689  0.61770

  WITH EQUILIBRIUM REACTIONS

 Cp, KJ/(KG)(K)    7.5183   7.0569   6.9034
 CONDUCTIVITY      8.9413   7.9633   7.6356
 PRANDTL NUMBER    0.5167   0.5467   0.5585

  WITH FROZEN REACTIONS

 Cp, KJ/(KG)(K)    6.3060   6.3129   6.3152
 CONDUCTIVITY      6.3202   6.3461   6.3548
 PRANDTL NUMBER    0.6131   0.6137   0.6139

 MASS FRACTIONS

 *H               0.00089  0.00055  0.00044
 *H2              0.23119  0.23151  0.23162
 H2O              0.76702  0.76737  0.76749
 *OH              0.00090  0.00057  0.00045

  * THERMODYNAMIC PROPERTIES FITTED TO 20000.K

    PRODUCTS WHICH WERE CONSIDERED BUT WHOSE MASS FRACTIONS
    WERE LESS THAN 5.000000E-06 FOR ALL ASSIGNED CONDITIONS

 HO2             H2O2            *O              *O2             O3             
 H2O(cr)         H2O(L)         

 NOTE. WEIGHT FRACTION OF FUEL IN TOTAL FUELS AND OF OXIDANT IN TOTAL OXIDANTS






 O/F =   1.984171

                       EFFECTIVE FUEL     EFFECTIVE OXIDANT        MIXTURE
 ENTHALPY                  h(2)/R              h(1)/R               h0/R
 (KG-MOL)(K)/KG        0.17658671E+03      0.11374097E+02      0.66737087E+02

 KG-FORM.WT./KG             bi(2)               bi(1)               b0i
  *H                   0.99212255E+00      0.00000000E+00      0.33246173E+00
  *O                   0.00000000E+00      0.62502344E-01      0.41557716E-01

 POINT ITN      T            H           O 




         THERMODYNAMIC EQUILIBRIUM COMBUSTION PROPERTIES AT ASSIGNED

                                   PRESSURES

 CASE = problem1_______

             REACTANT                    WT FRACTION      ENERGY      TEMP
                                          (SEE NOTE)     KJ/KG-MOL      K  
 FUEL        H2                           1.0000000      2959.779    400.000
 OXIDANT     O2                           1.0000000      3026.128    400.000

 O/F=    1.98417  %FUEL= 33.510148  R,EQ.RATIO= 4.000000  PHI,EQ.RATIO= 4.000000

 THERMODYNAMIC PROPERTIES

 P, BAR            1.0132   3.0397   5.0663
 T, K             2129.63  2137.43  2139.98
 RHO, KG/CU M    3.4366-2 1.0279-1 1.7115-1
 H, KJ/KG          554.89   554.89   554.89
 U, KJ/KG        -2393.50 -2402.33 -2405.21
 G, KJ/KG        -75538.2 -72566.9 -71141.9
 S, KJ/(KG)(K)    35.7306  34.2102  33.5035

 M, (1/n)           6.006    6.010    6.011
 (dLV/dLP)t      -1.00084 -1.00051 -1.00040
 (dLV/dLT)p        1.0218   1.0132   1.0104
 Cp, KJ/(KG)(K)    7.3064   6.9967   6.8962
 GAMMAs            1.2454   1.2539   1.2568
 SON VEL,M/SEC     1916.2   1925.6   1928.8

 TRANSPORT PROPERTIES (GASES ONLY)
   CONDUCTIVITY IN UNITS OF MILLIWATTS/(CM)(K)

 VISC,MILLIPOISE  0.58346  0.58490  0.58538

  WITH EQUILIBRIUM REACTIONS

 Cp, KJ/(KG)(K)    7.3064   6.9967   6.8962
 CONDUCTIVITY      7.8248   7.2011   6.9979
 PRANDTL NUMBER    0.5448   0.5683   0.5769

  WITH FROZEN REACTIONS

 Cp, KJ/(KG)(K)    6.5183   6.5229   6.5244
 CONDUCTIVITY      6.2124   6.2285   6.2337
 PRANDTL NUMBER    0.6122   0.6126   0.6127

 MASS FRACTIONS

 *H               0.00054  0.00033  0.00026
 *H2              0.25081  0.25102  0.25108
 H2O              0.74822  0.74840  0.74846
 *OH              0.00043  0.00026  0.00021

  * THERMODYNAMIC PROPERTIES FITTED TO 20000.K

    PRODUCTS WHICH WERE CONSIDERED BUT WHOSE MASS FRACTIONS
    WERE LESS THAN 5.000000E-06 FOR ALL ASSIGNED CONDITIONS

 HO2             H2O2            *O              *O2             O3             
 H2O(cr)         H2O(L)         

 NOTE. WEIGHT FRACTION OF FUEL IN TOTAL FUELS AND OF OXIDANT IN TOTAL OXIDANTS






 O/F =   1.845740

                       EFFECTIVE FUEL     EFFECTIVE OXIDANT        MIXTURE
 ENTHALPY                  h(2)/R              h(1)/R               h0/R
 (KG-MOL)(K)/KG        0.17658671E+03      0.11374097E+02      0.69430210E+02

 KG-FORM.WT./KG             bi(2)               bi(1)               b0i
  *H                   0.99212255E+00      0.00000000E+00      0.34863427E+00
  *O                   0.00000000E+00      0.62502344E-01      0.40538869E-01

 POINT ITN      T            H           O 




         THERMODYNAMIC EQUILIBRIUM COMBUSTION PROPERTIES AT ASSIGNED

                                   PRESSURES

 CASE = problem1_______

             REACTANT                    WT FRACTION      ENERGY      TEMP
                                          (SEE NOTE)     KJ/KG-MOL      K  
 FUEL        H2                           1.0000000      2959.779    400.000
 OXIDANT     O2                           1.0000000      3026.128    400.000

 O/F=    1.84574  %FUEL= 35.140243  R,EQ.RATIO= 4.300000  PHI,EQ.RATIO= 4.300000

 THERMODYNAMIC PROPERTIES

 P, BAR            1.0132   3.0397   5.0663
 T, K             2038.79  2043.38  2044.85
 RHO, KG/CU M    3.4257-2 1.0258-1 1.7087-1
 H, KJ/KG          577.28   577.28   577.28
 U, KJ/KG        -2380.49 -2386.00 -2387.77
 G, KJ/KG        -74616.6 -71529.7 -70066.9
 S, KJ/(KG)(K)    36.8815  35.2881  34.5473

 M, (1/n)           5.731    5.733    5.734
 (dLV/dLP)t      -1.00048 -1.00028 -1.00022
 (dLV/dLT)p        1.0129   1.0076   1.0060
 Cp, KJ/(KG)(K)    7.2197   7.0167   6.9520
 GAMMAs            1.2589   1.2651   1.2672
 SON VEL,M/SEC     1929.7   1936.2   1938.4

 TRANSPORT PROPERTIES (GASES ONLY)
   CONDUCTIVITY IN UNITS OF MILLIWATTS/(CM)(K)

 VISC,MILLIPOISE  0.55536  0.55620  0.55647

  WITH EQUILIBRIUM REACTIONS

 Cp, KJ/(KG)(K)    7.2197   7.0167   6.9520
 CONDUCTIVITY      7.0753   6.6874   6.5635
 PRANDTL NUMBER    0.5667   0.5836   0.5894

  WITH FROZEN REACTIONS

 Cp, KJ/(KG)(K)    6.7140   6.7169   6.7179
 CONDUCTIVITY      6.0963   6.1060   6.1091
 PRANDTL NUMBER    0.6116   0.6119   0.6119

 MASS FRACTIONS

 *H               0.00032  0.00019  0.00015
 *H2              0.26937  0.26950  0.26954
 H2O              0.73011  0.73019  0.73022
 *OH              0.00020  0.00012  0.00009

  * THERMODYNAMIC PROPERTIES FITTED TO 20000.K

    PRODUCTS WHICH WERE CONSIDERED BUT WHOSE MASS FRACTIONS
    WERE LESS THAN 5.000000E-06 FOR ALL ASSIGNED CONDITIONS

 HO2             H2O2            *O              *O2             O3             
 H2O(cr)         H2O(L)         

 NOTE. WEIGHT FRACTION OF FUEL IN TOTAL FUELS AND OF OXIDANT IN TOTAL OXIDANTS






 O/F =   1.725366

                       EFFECTIVE FUEL     EFFECTIVE OXIDANT        MIXTURE
 ENTHALPY                  h(2)/R              h(1)/R               h0/R
 (KG-MOL)(K)/KG        0.17658671E+03      0.11374097E+02      0.71994441E+02

 KG-FORM.WT./KG             bi(2)               bi(1)               b0i
  *H                   0.99212255E+00      0.00000000E+00      0.36403280E+00
  *O                   0.00000000E+00      0.62502344E-01      0.39568783E-01

 POINT ITN      T            H           O 




         THERMODYNAMIC EQUILIBRIUM COMBUSTION PROPERTIES AT ASSIGNED

                                   PRESSURES

 CASE = problem1_______

             REACTANT                    WT FRACTION      ENERGY      TEMP
                                          (SEE NOTE)     KJ/KG-MOL      K  
 FUEL        H2                           1.0000000      2959.779    400.000
 OXIDANT     O2                           1.0000000      3026.128    400.000

 O/F=    1.72537  %FUEL= 36.692322  R,EQ.RATIO= 4.600000  PHI,EQ.RATIO= 4.600000

 THERMODYNAMIC PROPERTIES

 P, BAR            1.0132   3.0397   5.0663
 T, K             1955.12  1957.79  1958.63
 RHO, KG/CU M    3.4227-2 1.0256-1 1.7088-1
 H, KJ/KG          598.60   598.60   598.60
 U, KJ/KG        -2361.82 -2365.21 -2366.28
 G, KJ/KG        -73622.2 -70467.2 -68983.2
 S, KJ/(KG)(K)    37.9623  36.2990  35.5257

 M, (1/n)           5.491    5.492    5.493
 (dLV/dLP)t      -1.00027 -1.00016 -1.00012
 (dLV/dLT)p        1.0076   1.0044   1.0035
 Cp, KJ/(KG)(K)    7.2176   7.0863   7.0450
 GAMMAs            1.2702   1.2745   1.2759
 SON VEL,M/SEC     1939.1   1943.5   1945.0

 TRANSPORT PROPERTIES (GASES ONLY)
   CONDUCTIVITY IN UNITS OF MILLIWATTS/(CM)(K)

 VISC,MILLIPOISE  0.52995  0.53044  0.53060

  WITH EQUILIBRIUM REACTIONS

 Cp, KJ/(KG)(K)    7.2176   7.0863   7.0451
 CONDUCTIVITY      6.5683   6.3305   6.2556
 PRANDTL NUMBER    0.5823   0.5938   0.5976

  WITH FROZEN REACTIONS

 Cp, KJ/(KG)(K)    6.8953   6.8971   6.8977
 CONDUCTIVITY      5.9773   5.9832   5.9850
 PRANDTL NUMBER    0.6113   0.6115   0.6115

 MASS FRACTIONS

 *H               0.00019  0.00011  0.00009
 *H2              0.28697  0.28705  0.28707
 H2O              0.71274  0.71278  0.71280
 *OH              0.00009  0.00006  0.00004

  * THERMODYNAMIC PROPERTIES FITTED TO 20000.K

    PRODUCTS WHICH WERE CONSIDERED BUT WHOSE MASS FRACTIONS
    WERE LESS THAN 5.000000E-06 FOR ALL ASSIGNED CONDITIONS

 HO2             H2O2            *O              *O2             O3             
 H2O(cr)         H2O(L)         

 NOTE. WEIGHT FRACTION OF FUEL IN TOTAL FUELS AND OF OXIDANT IN TOTAL OXIDANTS



